~{N}-[3-acetyl-4-[2-hydroxy-3-(isopropylamino)propoxy]phenyl]butanamide
  -OEChem-02121815213D

 52 52  0     1  0  0  0  0  0999 V2000
   -7.1271   -2.3837   -0.2700 C   0  0  0  0  0  0  0  0  0  0  0  0
   -8.3485   -2.4278    0.4022 C   0  0  0  0  0  0  0  0  0  0  0  0
   -5.9871   -3.0337    1.7585 C   0  0  0  0  0  0  0  0  0  0  0  0
   -7.2085   -3.0778    2.4308 C   0  0  0  0  0  0  0  0  0  0  0  0
   -5.9464   -2.6866    0.4082 C   0  0  0  0  0  0  0  0  0  0  0  0
   -8.3892   -2.7749    1.7526 C   0  0  0  0  0  0  0  0  0  0  0  0
   -7.2291   -3.4426    3.8404 C   0  0  0  0  0  0  0  0  0  0  0  0
   -3.4435   -2.9119    0.2425 C   0  0  0  0  0  0  0  0  0  0  0  0
   -6.1609   -4.3758    4.3290 C   0  0  0  0  0  0  0  0  0  0  0  0
    0.0807   -2.8505   -1.4476 C   0  0  0  0  0  0  0  0  0  0  0  0
   -8.9171   -7.1737    3.0590 C   0  0  0  0  0  0  0  0  0  0  0  0
  -10.4740   -8.4469    1.5421 C   0  0  0  0  0  0  0  0  0  0  0  0
   -2.3780   -2.7460   -0.8343 C   0  0  0  0  0  0  0  0  0  0  0  0
   -0.9575   -3.0248   -0.3479 C   0  0  0  0  0  0  0  0  0  0  0  0
  -11.2184   -5.1697    3.0770 C   0  0  0  0  0  0  0  0  0  0  0  0
  -10.7339   -3.1438    1.6047 C   0  0  0  0  0  0  0  0  0  0  0  0
  -10.3558   -7.3576    2.5981 C   0  0  0  0  0  0  0  0  0  0  0  0
  -11.7492   -3.8628    2.4877 C   0  0  2  0  0  0  0  0  0  0  0  0
   -4.7075   -2.6419   -0.2745 N   0  0  0  0  0  0  0  0  0  0  0  0
  -10.8428   -6.1000    2.0370 N   0  0  0  0  0  0  0  0  0  0  0  0
   -8.0600   -3.0461    4.6587 O   0  0  0  0  0  0  0  0  0  0  0  0
   -3.1624   -3.2205    1.3958 O   0  0  0  0  0  0  0  0  0  0  0  0
  -12.1369   -2.9826    3.5432 O   0  0  0  0  0  0  0  0  0  0  0  0
   -9.5923   -2.8116    2.3919 O   0  0  0  0  0  0  0  0  0  0  0  0
   -7.1073   -2.1122   -1.3224 H   0  0  0  0  0  0  0  0  0  0  0  0
   -9.2646   -2.1908   -0.1320 H   0  0  0  0  0  0  0  0  0  0  0  0
   -5.0661   -3.2693    2.2879 H   0  0  0  0  0  0  0  0  0  0  0  0
   -5.2518   -3.8672    4.6870 H   0  0  0  0  0  0  0  0  0  0  0  0
   -5.8504   -5.1133    3.5726 H   0  0  0  0  0  0  0  0  0  0  0  0
   -6.4785   -4.9851    5.1939 H   0  0  0  0  0  0  0  0  0  0  0  0
   -0.1059   -3.5250   -2.2884 H   0  0  0  0  0  0  0  0  0  0  0  0
    1.0807   -3.0671   -1.0584 H   0  0  0  0  0  0  0  0  0  0  0  0
    0.0812   -1.8232   -1.8259 H   0  0  0  0  0  0  0  0  0  0  0  0
   -8.2671   -6.9185    2.2158 H   0  0  0  0  0  0  0  0  0  0  0  0
   -8.8354   -6.3765    3.8064 H   0  0  0  0  0  0  0  0  0  0  0  0
   -8.5349   -8.0932    3.5158 H   0  0  0  0  0  0  0  0  0  0  0  0
   -9.8503   -8.2136    0.6722 H   0  0  0  0  0  0  0  0  0  0  0  0
  -11.5092   -8.5473    1.1998 H   0  0  0  0  0  0  0  0  0  0  0  0
  -10.1473   -9.4181    1.9303 H   0  0  0  0  0  0  0  0  0  0  0  0
   -2.6188   -3.3933   -1.6859 H   0  0  0  0  0  0  0  0  0  0  0  0
   -2.4350   -1.7071   -1.1822 H   0  0  0  0  0  0  0  0  0  0  0  0
   -0.7209   -2.3270    0.4640 H   0  0  0  0  0  0  0  0  0  0  0  0
   -0.8830   -4.0360    0.0682 H   0  0  0  0  0  0  0  0  0  0  0  0
  -10.3351   -4.9706    3.6931 H   0  0  0  0  0  0  0  0  0  0  0  0
  -11.9766   -5.6328    3.7170 H   0  0  0  0  0  0  0  0  0  0  0  0
  -11.1504   -2.2150    1.2026 H   0  0  0  0  0  0  0  0  0  0  0  0
  -10.3938   -3.7813    0.7823 H   0  0  0  0  0  0  0  0  0  0  0  0
  -10.9868   -7.6119    3.4567 H   0  0  0  0  0  0  0  0  0  0  0  0
  -12.6543   -4.0699    1.9045 H   0  0  0  0  0  0  0  0  0  0  0  0
   -4.7450   -2.3820   -1.2580 H   0  0  0  0  0  0  0  0  0  0  0  0
  -11.6506   -6.2983    1.4405 H   0  0  0  0  0  0  0  0  0  0  0  0
  -12.8281   -3.4426    4.0427 H   0  0  0  0  0  0  0  0  0  0  0  0
  1  2  2  0  0  0  0
  1  5  1  0  0  0  0
  2  6  1  0  0  0  0
  3  4  1  0  0  0  0
  3  5  2  0  0  0  0
  4  6  2  0  0  0  0
  4  7  1  0  0  0  0
  5 19  1  0  0  0  0
  6 24  1  0  0  0  0
  7  9  1  0  0  0  0
  7 21  2  0  0  0  0
  8 13  1  0  0  0  0
  8 19  1  0  0  0  0
  8 22  2  0  0  0  0
 10 14  1  0  0  0  0
 11 17  1  0  0  0  0
 12 17  1  0  0  0  0
 13 14  1  0  0  0  0
 15 18  1  0  0  0  0
 15 20  1  0  0  0  0
 16 18  1  0  0  0  0
 16 24  1  0  0  0  0
 17 20  1  0  0  0  0
 18 23  1  0  0  0  0
  1 25  1  0  0  0  0
  2 26  1  0  0  0  0
  3 27  1  0  0  0  0
  9 28  1  0  0  0  0
  9 29  1  0  0  0  0
  9 30  1  0  0  0  0
 10 31  1  0  0  0  0
 10 32  1  0  0  0  0
 10 33  1  0  0  0  0
 11 34  1  0  0  0  0
 11 35  1  0  0  0  0
 11 36  1  0  0  0  0
 12 37  1  0  0  0  0
 12 38  1  0  0  0  0
 12 39  1  0  0  0  0
 13 40  1  0  0  0  0
 13 41  1  0  0  0  0
 14 42  1  0  0  0  0
 14 43  1  0  0  0  0
 15 44  1  0  0  0  0
 15 45  1  0  0  0  0
 16 46  1  0  0  0  0
 16 47  1  0  0  0  0
 17 48  1  0  0  0  0
 18 49  1  0  0  0  0
 19 50  1  0  0  0  0
 20 51  1  0  0  0  0
 23 52  1  0  0  0  0
M  END
$$$$
