3-benzyl-1,1-dioxo-6-(trifluoromethyl)-3,4-dihydro-2~{H}-1$l^{6},2,4-benzothiadi
  -OEChem-02121815213D

 41 43  0     1  0  0  0  0  0999 V2000
    7.9485   -5.8813    2.7021 C   0  0  0  0  0  0  0  0  0  0  0  0
    7.0677   -6.7369    3.3637 C   0  0  0  0  0  0  0  0  0  0  0  0
    7.5235   -4.6133    2.3055 C   0  0  0  0  0  0  0  0  0  0  0  0
    5.7618   -6.3245    3.6287 C   0  0  0  0  0  0  0  0  0  0  0  0
    6.2176   -4.2010    2.5705 C   0  0  0  0  0  0  0  0  0  0  0  0
    2.5904   -2.2009   -0.1366 C   0  0  0  0  0  0  0  0  0  0  0  0
    0.3401   -1.6081    1.3888 C   0  0  0  0  0  0  0  0  0  0  0  0
    5.3367   -5.0566    3.2321 C   0  0  0  0  0  0  0  0  0  0  0  0
    1.7660   -1.1280   -0.4893 C   0  0  0  0  0  0  0  0  0  0  0  0
    2.3171   -3.0012    0.9857 C   0  0  0  0  0  0  0  0  0  0  0  0
    1.1764   -2.6755    1.7313 C   0  0  0  0  0  0  0  0  0  0  0  0
    0.6409   -0.8326    0.2740 C   0  0  0  0  0  0  0  0  0  0  0  0
    2.9822   -4.9743    2.3811 C   0  0  2  0  0  0  0  0  0  0  0  0
    3.9281   -4.6112    3.5174 C   0  0  0  0  0  0  0  0  0  0  0  0
    2.1254   -0.3162   -1.6907 C   0  0  0  0  0  0  0  0  0  0  0  0
    3.1579   -4.0636    1.2656 N   0  0  0  0  0  0  0  0  0  0  0  0
    1.5857   -5.0693    2.8595 N   0  0  0  0  0  0  0  0  0  0  0  0
   -1.5744    0.3906    1.1104 N   0  0  0  0  0  0  0  0  0  0  0  0
    1.3118   -2.9310    4.2929 O   0  0  0  0  0  0  0  0  0  0  0  0
   -0.6796   -3.9035    3.0779 O   0  0  0  0  0  0  0  0  0  0  0  0
    0.3391    1.7408    0.0330 O   0  0  0  0  0  0  0  0  0  0  0  0
   -1.0531    0.2117   -1.4062 O   0  0  0  0  0  0  0  0  0  0  0  0
    3.2603   -0.7433   -2.3174 F   0  0  0  0  0  0  0  0  0  0  0  0
    1.1609   -0.3171   -2.6563 F   0  0  0  0  0  0  0  0  0  0  0  0
    2.3431    0.9958   -1.3886 F   0  0  0  0  0  0  0  0  0  0  0  0
    0.7403   -3.6199    3.1534 S   0  0  0  0  0  0  0  0  0  0  0  0
   -0.4102    0.5046   -0.1341 S   0  0  0  0  0  0  0  0  0  0  0  0
    8.9657   -6.2020    2.4970 H   0  0  0  0  0  0  0  0  0  0  0  0
    7.3988   -7.7238    3.6735 H   0  0  0  0  0  0  0  0  0  0  0  0
    8.2093   -3.9465    1.7914 H   0  0  0  0  0  0  0  0  0  0  0  0
    5.0823   -6.9980    4.1445 H   0  0  0  0  0  0  0  0  0  0  0  0
    5.8951   -3.2113    2.2578 H   0  0  0  0  0  0  0  0  0  0  0  0
    3.4656   -2.4187   -0.7488 H   0  0  0  0  0  0  0  0  0  0  0  0
   -0.5416   -1.3844    1.9844 H   0  0  0  0  0  0  0  0  0  0  0  0
    3.2817   -6.0117    2.0267 H   0  0  0  0  0  0  0  0  0  0  0  0
    3.5745   -5.0679    4.4481 H   0  0  0  0  0  0  0  0  0  0  0  0
    3.9058   -3.5282    3.6804 H   0  0  0  0  0  0  0  0  0  0  0  0
    3.8231   -4.3380    0.5308 H   0  0  0  0  0  0  0  0  0  0  0  0
    1.0324   -5.8431    2.4169 H   0  0  0  0  0  0  0  0  0  0  0  0
   -1.5662    1.1091    1.8446 H   0  0  0  0  0  0  0  0  0  0  0  0
   -2.5155    0.0629    0.8607 H   0  0  0  0  0  0  0  0  0  0  0  0
  1  2  1  0  0  0  0
  1  3  2  0  0  0  0
  2  4  2  0  0  0  0
  3  5  1  0  0  0  0
  4  8  1  0  0  0  0
  5  8  2  0  0  0  0
  6  9  1  0  0  0  0
  6 10  2  0  0  0  0
  7 11  2  0  0  0  0
  7 12  1  0  0  0  0
  8 14  1  0  0  0  0
  9 12  2  0  0  0  0
  9 15  1  0  0  0  0
 10 11  1  0  0  0  0
 10 16  1  0  0  0  0
 11 26  1  0  0  0  0
 12 27  1  0  0  0  0
 13 14  1  0  0  0  0
 13 16  1  0  0  0  0
 13 17  1  0  0  0  0
 15 23  1  0  0  0  0
 15 24  1  0  0  0  0
 15 25  1  0  0  0  0
 17 26  1  0  0  0  0
 18 27  1  0  0  0  0
 19 26  2  0  0  0  0
 20 26  2  0  0  0  0
 21 27  2  0  0  0  0
 22 27  2  0  0  0  0
  1 28  1  0  0  0  0
  2 29  1  0  0  0  0
  3 30  1  0  0  0  0
  4 31  1  0  0  0  0
  5 32  1  0  0  0  0
  6 33  1  0  0  0  0
  7 34  1  0  0  0  0
 13 35  1  0  0  0  0
 14 36  1  0  0  0  0
 14 37  1  0  0  0  0
 16 38  1  0  0  0  0
 17 39  1  0  0  0  0
 18 40  1  0  0  0  0
 18 41  1  0  0  0  0
M  END
$$$$
