3-chloro-6-(4-methylpiperazin-1-yl)-11~{H}-benzo[b][1,4]benzodiazepine
  -OEChem-02121815213D

 42 45  0     0  0  0  0  0  0999 V2000
    0.8142   -2.0336    1.7842 C   0  0  0  0  0  0  0  0  0  0  0  0
    2.1142   -1.5925    1.9748 C   0  0  0  0  0  0  0  0  0  0  0  0
   -0.0078   -1.3833    0.8651 C   0  0  0  0  0  0  0  0  0  0  0  0
    2.5743   -0.4850    1.2648 C   0  0  0  0  0  0  0  0  0  0  0  0
    2.2359    3.7878   -0.2688 C   0  0  0  0  0  0  0  0  0  0  0  0
    1.5912    5.0130   -0.4261 C   0  0  0  0  0  0  0  0  0  0  0  0
   -0.4007    3.8401   -1.0761 C   0  0  0  0  0  0  0  0  0  0  0  0
    0.4568   -0.2771    0.1252 C   0  0  0  0  0  0  0  0  0  0  0  0
    0.2352    2.5927   -0.9209 C   0  0  0  0  0  0  0  0  0  0  0  0
    1.7539    0.2003    0.3418 C   0  0  0  0  0  0  0  0  0  0  0  0
    1.5710    2.5651   -0.5067 C   0  0  0  0  0  0  0  0  0  0  0  0
    0.2641    5.0389   -0.8241 C   0  0  0  0  0  0  0  0  0  0  0  0
   -0.4307    0.2543   -0.9535 C   0  0  0  0  0  0  0  0  0  0  0  0
   -2.6828   -0.4823   -1.5476 C   0  0  0  0  0  0  0  0  0  0  0  0
   -0.6613   -1.7850   -2.2784 C   0  0  0  0  0  0  0  0  0  0  0  0
   -3.2000   -0.5691   -2.9806 C   0  0  0  0  0  0  0  0  0  0  0  0
   -1.2516   -1.8236   -3.6849 C   0  0  0  0  0  0  0  0  0  0  0  0
   -3.2754   -1.8955   -4.9906 C   0  0  0  0  0  0  0  0  0  0  0  0
   -0.4968    1.4894   -1.3628 N   0  0  0  0  0  0  0  0  0  0  0  0
    2.2669    1.3845   -0.2074 N   0  0  0  0  0  0  0  0  0  0  0  0
   -1.2159   -0.6208   -1.5654 N   0  0  0  0  0  0  0  0  0  0  0  0
   -2.7220   -1.7944   -3.6401 N   0  0  0  0  0  0  0  0  0  0  0  0
   -0.5504    6.5395   -1.0279 Cl  0  0  0  0  0  0  0  0  0  0  0  0
    0.4393   -2.8867    2.3417 H   0  0  0  0  0  0  0  0  0  0  0  0
    2.7643   -2.0935    2.6854 H   0  0  0  0  0  0  0  0  0  0  0  0
   -1.0194   -1.7620    0.7390 H   0  0  0  0  0  0  0  0  0  0  0  0
    3.5865   -0.1326    1.4580 H   0  0  0  0  0  0  0  0  0  0  0  0
    3.2714    3.7870    0.0677 H   0  0  0  0  0  0  0  0  0  0  0  0
    2.1358    5.9318   -0.2268 H   0  0  0  0  0  0  0  0  0  0  0  0
   -1.4338    3.8647   -1.4227 H   0  0  0  0  0  0  0  0  0  0  0  0
   -2.9925    0.4710   -1.1018 H   0  0  0  0  0  0  0  0  0  0  0  0
   -3.1004   -1.2873   -0.9292 H   0  0  0  0  0  0  0  0  0  0  0  0
   -0.9216   -2.6919   -1.7176 H   0  0  0  0  0  0  0  0  0  0  0  0
    0.4330   -1.7371   -2.3397 H   0  0  0  0  0  0  0  0  0  0  0  0
   -4.2963   -0.5638   -2.9509 H   0  0  0  0  0  0  0  0  0  0  0  0
   -2.8825    0.3197   -3.5423 H   0  0  0  0  0  0  0  0  0  0  0  0
   -0.8669   -0.9779   -4.2709 H   0  0  0  0  0  0  0  0  0  0  0  0
   -0.9104   -2.7431   -4.1758 H   0  0  0  0  0  0  0  0  0  0  0  0
   -2.9173   -2.8071   -5.4761 H   0  0  0  0  0  0  0  0  0  0  0  0
   -2.9690   -1.0340   -5.5901 H   0  0  0  0  0  0  0  0  0  0  0  0
   -4.3676   -1.9239   -4.9504 H   0  0  0  0  0  0  0  0  0  0  0  0
    3.2719    1.4959   -0.1153 H   0  0  0  0  0  0  0  0  0  0  0  0
  1  2  1  0  0  0  0
  1  3  2  0  0  0  0
  2  4  2  0  0  0  0
  3  8  1  0  0  0  0
  4 10  1  0  0  0  0
  5  6  2  0  0  0  0
  5 11  1  0  0  0  0
  6 12  1  0  0  0  0
  7  9  1  0  0  0  0
  7 12  2  0  0  0  0
  8 10  2  0  0  0  0
  8 13  1  0  0  0  0
  9 11  2  0  0  0  0
  9 19  1  0  0  0  0
 10 20  1  0  0  0  0
 11 20  1  0  0  0  0
 12 23  1  0  0  0  0
 13 19  2  0  0  0  0
 13 21  1  0  0  0  0
 14 16  1  0  0  0  0
 14 21  1  0  0  0  0
 15 17  1  0  0  0  0
 15 21  1  0  0  0  0
 16 22  1  0  0  0  0
 17 22  1  0  0  0  0
 18 22  1  0  0  0  0
  1 24  1  0  0  0  0
  2 25  1  0  0  0  0
  3 26  1  0  0  0  0
  4 27  1  0  0  0  0
  5 28  1  0  0  0  0
  6 29  1  0  0  0  0
  7 30  1  0  0  0  0
 14 31  1  0  0  0  0
 14 32  1  0  0  0  0
 15 33  1  0  0  0  0
 15 34  1  0  0  0  0
 16 35  1  0  0  0  0
 16 36  1  0  0  0  0
 17 37  1  0  0  0  0
 17 38  1  0  0  0  0
 18 39  1  0  0  0  0
 18 40  1  0  0  0  0
 18 41  1  0  0  0  0
 20 42  1  0  0  0  0
M  END
$$$$
