4-[(~{E})-1-ethyl-2-(4-hydroxyphenyl)but-1-enyl]phenol
  -OEChem-02121815213D

 40 41  0     0  0  0  0  0  0999 V2000
   -0.8190   -1.1440   -3.9290 C   0  0  0  0  0  0  0  0  0  0  0  0
   -1.6634   -1.7174   -1.7392 C   0  0  0  0  0  0  0  0  0  0  0  0
   -2.2695    3.7998   -3.1938 C   0  0  0  0  0  0  0  0  0  0  0  0
   -3.1138    3.2264   -1.0040 C   0  0  0  0  0  0  0  0  0  0  0  0
   -0.7162   -2.4989   -4.2441 C   0  0  0  0  0  0  0  0  0  0  0  0
   -1.5607   -3.0723   -2.0543 C   0  0  0  0  0  0  0  0  0  0  0  0
   -2.3723    5.1546   -2.8788 C   0  0  0  0  0  0  0  0  0  0  0  0
   -3.2166    4.5813   -0.6888 C   0  0  0  0  0  0  0  0  0  0  0  0
   -1.2925   -0.7533   -2.6765 C   0  0  0  0  0  0  0  0  0  0  0  0
   -2.6403    2.8356   -2.2564 C   0  0  0  0  0  0  0  0  0  0  0  0
   -1.0871   -3.4631   -3.3068 C   0  0  0  0  0  0  0  0  0  0  0  0
   -2.8458    5.5454   -1.6263 C   0  0  0  0  0  0  0  0  0  0  0  0
   -1.4016    0.6864   -2.3416 C   0  0  0  0  0  0  0  0  0  0  0  0
   -2.5310    1.3960   -2.5913 C   0  0  0  0  0  0  0  0  0  0  0  0
   -0.1171    1.2199   -0.2349 C   0  0  0  0  0  0  0  0  0  0  0  0
   -4.7480    0.2298   -2.2785 C   0  0  0  0  0  0  0  0  0  0  0  0
   -0.1340    1.2789   -1.7569 C   0  0  0  0  0  0  0  0  0  0  0  0
   -3.7614    0.8289   -3.2726 C   0  0  0  0  0  0  0  0  0  0  0  0
   -0.9868   -4.7852   -3.6144 O   0  0  0  0  0  0  0  0  0  0  0  0
   -2.9462    6.8676   -1.3188 O   0  0  0  0  0  0  0  0  0  0  0  0
   -0.5261   -0.4042   -4.6701 H   0  0  0  0  0  0  0  0  0  0  0  0
   -2.0343   -1.4284   -0.7587 H   0  0  0  0  0  0  0  0  0  0  0  0
   -1.8986    3.5107   -4.1743 H   0  0  0  0  0  0  0  0  0  0  0  0
   -3.4066    2.4866   -0.2627 H   0  0  0  0  0  0  0  0  0  0  0  0
   -0.3466   -2.7972   -5.2215 H   0  0  0  0  0  0  0  0  0  0  0  0
   -1.8511   -3.8188   -1.3201 H   0  0  0  0  0  0  0  0  0  0  0  0
   -2.0820    5.9011   -3.6131 H   0  0  0  0  0  0  0  0  0  0  0  0
   -3.5861    4.8797    0.2885 H   0  0  0  0  0  0  0  0  0  0  0  0
   -0.2450    0.1861    0.1021 H   0  0  0  0  0  0  0  0  0  0  0  0
   -0.9274    1.8150    0.1984 H   0  0  0  0  0  0  0  0  0  0  0  0
    0.8315    1.5907    0.1673 H   0  0  0  0  0  0  0  0  0  0  0  0
   -4.2784   -0.5534   -1.6743 H   0  0  0  0  0  0  0  0  0  0  0  0
   -5.5934   -0.2170   -2.8116 H   0  0  0  0  0  0  0  0  0  0  0  0
   -5.1460    0.9919   -1.6006 H   0  0  0  0  0  0  0  0  0  0  0  0
   -0.0050    2.3194   -2.0755 H   0  0  0  0  0  0  0  0  0  0  0  0
    0.7484    0.7556   -2.1462 H   0  0  0  0  0  0  0  0  0  0  0  0
   -4.2687    1.6070   -3.8568 H   0  0  0  0  0  0  0  0  0  0  0  0
   -3.4843    0.0642   -4.0068 H   0  0  0  0  0  0  0  0  0  0  0  0
   -1.2802   -5.3279   -2.8653 H   0  0  0  0  0  0  0  0  0  0  0  0
   -3.2890    6.9782   -0.4177 H   0  0  0  0  0  0  0  0  0  0  0  0
  1  5  2  0  0  0  0
  1  9  1  0  0  0  0
  2  6  1  0  0  0  0
  2  9  2  0  0  0  0
  3  7  2  0  0  0  0
  3 10  1  0  0  0  0
  4  8  1  0  0  0  0
  4 10  2  0  0  0  0
  5 11  1  0  0  0  0
  6 11  2  0  0  0  0
  7 12  1  0  0  0  0
  8 12  2  0  0  0  0
  9 13  1  0  0  0  0
 10 14  1  0  0  0  0
 11 19  1  0  0  0  0
 12 20  1  0  0  0  0
 13 14  2  0  0  0  0
 13 17  1  0  0  0  0
 14 18  1  0  0  0  0
 15 17  1  0  0  0  0
 16 18  1  0  0  0  0
  1 21  1  0  0  0  0
  2 22  1  0  0  0  0
  3 23  1  0  0  0  0
  4 24  1  0  0  0  0
  5 25  1  0  0  0  0
  6 26  1  0  0  0  0
  7 27  1  0  0  0  0
  8 28  1  0  0  0  0
 15 29  1  0  0  0  0
 15 30  1  0  0  0  0
 15 31  1  0  0  0  0
 16 32  1  0  0  0  0
 16 33  1  0  0  0  0
 16 34  1  0  0  0  0
 17 35  1  0  0  0  0
 17 36  1  0  0  0  0
 18 37  1  0  0  0  0
 18 38  1  0  0  0  0
 19 39  1  0  0  0  0
 20 40  1  0  0  0  0
M  END
$$$$
