5-(2,4-difluorophenyl)-2-hydroxy-benzoic acid
  -OEChem-02121815213D

 26 27  0     0  0  0  0  0  0999 V2000
    1.8851   -1.0363   -0.1124 C   0  0  0  0  0  0  0  0  0  0  0  0
    4.8326   -1.4381   -0.9260 C   0  0  0  0  0  0  0  0  0  0  0  0
    0.8066   -0.4630    0.5610 C   0  0  0  0  0  0  0  0  0  0  0  0
    5.9125   -2.0066   -1.6015 C   0  0  0  0  0  0  0  0  0  0  0  0
    2.8783   -1.6520    2.0022 C   0  0  0  0  0  0  0  0  0  0  0  0
    5.4063   -4.1495   -0.6071 C   0  0  0  0  0  0  0  0  0  0  0  0
    2.9210   -1.6309    0.6081 C   0  0  0  0  0  0  0  0  0  0  0  0
    4.0396   -2.2253   -0.0910 C   0  0  0  0  0  0  0  0  0  0  0  0
    1.7997   -1.0786    2.6757 C   0  0  0  0  0  0  0  0  0  0  0  0
    0.7638   -0.4841    1.9551 C   0  0  0  0  0  0  0  0  0  0  0  0
    6.1993   -3.3623   -1.4420 C   0  0  0  0  0  0  0  0  0  0  0  0
    4.3264   -3.5810    0.0684 C   0  0  0  0  0  0  0  0  0  0  0  0
    1.7743   -1.1106    4.1314 C   0  0  0  0  0  0  0  0  0  0  0  0
    1.2413   -0.2646    4.8550 O   0  0  0  0  0  0  0  0  0  0  0  0
   -0.2976    0.0826    2.5945 O   0  0  0  0  0  0  0  0  0  0  0  0
    2.4145   -2.1992    4.6374 O   0  0  0  0  0  0  0  0  0  0  0  0
    7.2356   -3.9080   -2.0918 F   0  0  0  0  0  0  0  0  0  0  0  0
    3.5740   -4.3510    0.8683 F   0  0  0  0  0  0  0  0  0  0  0  0
    1.9043   -1.0115   -1.1993 H   0  0  0  0  0  0  0  0  0  0  0  0
    4.6225   -0.3796   -1.0602 H   0  0  0  0  0  0  0  0  0  0  0  0
    0.0029   -0.0008   -0.0057 H   0  0  0  0  0  0  0  0  0  0  0  0
    6.5311   -1.3938   -2.2506 H   0  0  0  0  0  0  0  0  0  0  0  0
    3.6852   -2.1151    2.5672 H   0  0  0  0  0  0  0  0  0  0  0  0
    5.6296   -5.2049   -0.4832 H   0  0  0  0  0  0  0  0  0  0  0  0
   -0.9214    0.4485    1.9482 H   0  0  0  0  0  0  0  0  0  0  0  0
    2.4022   -2.2304    5.6178 H   0  0  0  0  0  0  0  0  0  0  0  0
  1  3  2  0  0  0  0
  1  7  1  0  0  0  0
  2  4  2  0  0  0  0
  2  8  1  0  0  0  0
  3 10  1  0  0  0  0
  4 11  1  0  0  0  0
  5  7  2  0  0  0  0
  5  9  1  0  0  0  0
  6 11  2  0  0  0  0
  6 12  1  0  0  0  0
  7  8  1  0  0  0  0
  8 12  2  0  0  0  0
  9 10  2  0  0  0  0
  9 13  1  0  0  0  0
 10 15  1  0  0  0  0
 11 17  1  0  0  0  0
 12 18  1  0  0  0  0
 13 14  2  0  0  0  0
 13 16  1  0  0  0  0
  1 19  1  0  0  0  0
  2 20  1  0  0  0  0
  3 21  1  0  0  0  0
  4 22  1  0  0  0  0
  5 23  1  0  0  0  0
  6 24  1  0  0  0  0
 15 25  1  0  0  0  0
 16 26  1  0  0  0  0
M  END
$$$$
