2-[[2-[bis(2-hydroxyethyl)amino]-4,8-bis(1-piperidyl)pyrimido[5,4-d]pyrimidin-6-
  -OEChem-02121815223D

 76 79  0     0  0  0  0  0  0999 V2000
   -4.5486    4.6747   -0.0688 C   0  0  0  0  0  0  0  0  0  0  0  0
   -3.6083    3.6588    0.0992 C   0  0  0  0  0  0  0  0  0  0  0  0
   -5.8245    4.3571    0.3558 C   0  0  0  0  0  0  0  0  0  0  0  0
   -2.3323    3.9765   -0.3255 C   0  0  0  0  0  0  0  0  0  0  0  0
   -5.1901    2.2824    1.0035 C   0  0  0  0  0  0  0  0  0  0  0  0
   -2.9668    6.0512   -0.9731 C   0  0  0  0  0  0  0  0  0  0  0  0
   -8.9758    7.2298   -0.0694 C   0  0  0  0  0  0  0  0  0  0  0  0
    0.7950    1.0649    0.0008 C   0  0  0  0  0  0  0  0  0  0  0  0
   -7.7878    7.2274   -1.0234 C   0  0  0  0  0  0  0  0  0  0  0  0
   -8.5520    6.7099    1.2989 C   0  0  0  0  0  0  0  0  0  0  0  0
   -0.6576    0.6352   -0.1634 C   0  0  0  0  0  0  0  0  0  0  0  0
    0.8687    2.3979    0.7354 C   0  0  0  0  0  0  0  0  0  0  0  0
   -7.1456    5.8443   -1.1199 C   0  0  0  0  0  0  0  0  0  0  0  0
   -7.9157    5.3254    1.1969 C   0  0  0  0  0  0  0  0  0  0  0  0
   -1.4876    1.7109   -0.8624 C   0  0  0  0  0  0  0  0  0  0  0  0
    0.0416    3.4702    0.0296 C   0  0  0  0  0  0  0  0  0  0  0  0
   -4.5039    0.0066    1.7177 C   0  0  0  0  0  0  0  0  0  0  0  0
   -6.8713    0.7559    2.0053 C   0  0  0  0  0  0  0  0  0  0  0  0
   -3.6534    8.3262   -1.6895 C   0  0  0  0  0  0  0  0  0  0  0  0
   -1.2797    7.5872   -1.9504 C   0  0  0  0  0  0  0  0  0  0  0  0
   -3.6986    0.2734    2.9762 C   0  0  0  0  0  0  0  0  0  0  0  0
   -7.7255    0.3620    0.8142 C   0  0  0  0  0  0  0  0  0  0  0  0
   -3.8486    9.0533   -0.3716 C   0  0  0  0  0  0  0  0  0  0  0  0
   -1.0330    6.9914   -3.3243 C   0  0  0  0  0  0  0  0  0  0  0  0
   -4.2472    5.8744   -0.6017 N   0  0  0  0  0  0  0  0  0  0  0  0
   -3.9097    2.4592    0.6321 N   0  0  0  0  0  0  0  0  0  0  0  0
   -6.1850    3.1748    0.8961 N   0  0  0  0  0  0  0  0  0  0  0  0
   -1.9719    5.1588   -0.8658 N   0  0  0  0  0  0  0  0  0  0  0  0
   -6.8210    5.3311    0.2160 N   0  0  0  0  0  0  0  0  0  0  0  0
   -1.3356    3.0030   -0.1838 N   0  0  0  0  0  0  0  0  0  0  0  0
   -5.5186    1.0292    1.5641 N   0  0  0  0  0  0  0  0  0  0  0  0
   -2.6385    7.3040   -1.5348 N   0  0  0  0  0  0  0  0  0  0  0  0
   -4.5698    0.2896    4.0998 O   0  0  0  0  0  0  0  0  0  0  0  0
   -7.1611   -0.7820    0.1860 O   0  0  0  0  0  0  0  0  0  0  0  0
   -2.6144    9.6285    0.0378 O   0  0  0  0  0  0  0  0  0  0  0  0
   -1.9653    7.5361   -4.2496 O   0  0  0  0  0  0  0  0  0  0  0  0
   -9.3736    8.2473    0.0263 H   0  0  0  0  0  0  0  0  0  0  0  0
   -9.7791    6.6039   -0.4732 H   0  0  0  0  0  0  0  0  0  0  0  0
    1.3476    0.3007    0.5606 H   0  0  0  0  0  0  0  0  0  0  0  0
    1.2704    1.1545   -0.9821 H   0  0  0  0  0  0  0  0  0  0  0  0
   -8.1251    7.5414   -2.0193 H   0  0  0  0  0  0  0  0  0  0  0  0
   -7.0422    7.9588   -0.6921 H   0  0  0  0  0  0  0  0  0  0  0  0
   -7.8455    7.4085    1.7608 H   0  0  0  0  0  0  0  0  0  0  0  0
   -9.4306    6.6599    1.9544 H   0  0  0  0  0  0  0  0  0  0  0  0
   -0.6948   -0.2910   -0.7508 H   0  0  0  0  0  0  0  0  0  0  0  0
   -1.0931    0.4109    0.8167 H   0  0  0  0  0  0  0  0  0  0  0  0
    0.5150    2.2762    1.7653 H   0  0  0  0  0  0  0  0  0  0  0  0
    1.9155    2.7226    0.7907 H   0  0  0  0  0  0  0  0  0  0  0  0
   -7.8436    5.1674   -1.6286 H   0  0  0  0  0  0  0  0  0  0  0  0
   -6.2339    5.8996   -1.7289 H   0  0  0  0  0  0  0  0  0  0  0  0
   -7.5336    5.0170    2.1787 H   0  0  0  0  0  0  0  0  0  0  0  0
   -8.6875    4.6042    0.9001 H   0  0  0  0  0  0  0  0  0  0  0  0
   -1.1630    1.7833   -1.9118 H   0  0  0  0  0  0  0  0  0  0  0  0
   -2.5494    1.4179   -0.8716 H   0  0  0  0  0  0  0  0  0  0  0  0
    0.0323    4.3939    0.6295 H   0  0  0  0  0  0  0  0  0  0  0  0
    0.5208    3.7134   -0.9310 H   0  0  0  0  0  0  0  0  0  0  0  0
   -3.8662    0.0199    0.8282 H   0  0  0  0  0  0  0  0  0  0  0  0
   -5.0050   -0.9638    1.7848 H   0  0  0  0  0  0  0  0  0  0  0  0
   -7.2611    1.6548    2.4933 H   0  0  0  0  0  0  0  0  0  0  0  0
   -6.8343   -0.0597    2.7338 H   0  0  0  0  0  0  0  0  0  0  0  0
   -4.5794    7.8433   -2.0173 H   0  0  0  0  0  0  0  0  0  0  0  0
   -3.3197    9.0239   -2.4635 H   0  0  0  0  0  0  0  0  0  0  0  0
   -0.5981    7.1636   -1.2059 H   0  0  0  0  0  0  0  0  0  0  0  0
   -1.1506    8.6734   -1.9774 H   0  0  0  0  0  0  0  0  0  0  0  0
   -3.2139    1.2525    2.9104 H   0  0  0  0  0  0  0  0  0  0  0  0
   -2.9336   -0.4936    3.1348 H   0  0  0  0  0  0  0  0  0  0  0  0
   -7.7445    1.1748    0.0816 H   0  0  0  0  0  0  0  0  0  0  0  0
   -8.7520    0.1282    1.1147 H   0  0  0  0  0  0  0  0  0  0  0  0
   -4.1656    8.3475    0.4025 H   0  0  0  0  0  0  0  0  0  0  0  0
   -4.5964    9.8484   -0.4574 H   0  0  0  0  0  0  0  0  0  0  0  0
   -1.1804    5.9074   -3.2948 H   0  0  0  0  0  0  0  0  0  0  0  0
   -0.0193    7.2043   -3.6793 H   0  0  0  0  0  0  0  0  0  0  0  0
   -4.0175    0.4624    4.8792 H   0  0  0  0  0  0  0  0  0  0  0  0
   -7.7347   -0.9992   -0.5663 H   0  0  0  0  0  0  0  0  0  0  0  0
   -2.7827   10.0813    0.8798 H   0  0  0  0  0  0  0  0  0  0  0  0
   -1.7737    7.1309   -5.1106 H   0  0  0  0  0  0  0  0  0  0  0  0
  1  2  2  0  0  0  0
  1  3  1  0  0  0  0
  1 25  1  0  0  0  0
  2  4  1  0  0  0  0
  2 26  1  0  0  0  0
  3 27  2  0  0  0  0
  3 29  1  0  0  0  0
  4 28  2  0  0  0  0
  4 30  1  0  0  0  0
  5 26  2  0  0  0  0
  5 27  1  0  0  0  0
  5 31  1  0  0  0  0
  6 25  2  0  0  0  0
  6 28  1  0  0  0  0
  6 32  1  0  0  0  0
  7  9  1  0  0  0  0
  7 10  1  0  0  0  0
  8 11  1  0  0  0  0
  8 12  1  0  0  0  0
  9 13  1  0  0  0  0
 10 14  1  0  0  0  0
 11 15  1  0  0  0  0
 12 16  1  0  0  0  0
 13 29  1  0  0  0  0
 14 29  1  0  0  0  0
 15 30  1  0  0  0  0
 16 30  1  0  0  0  0
 17 21  1  0  0  0  0
 17 31  1  0  0  0  0
 18 22  1  0  0  0  0
 18 31  1  0  0  0  0
 19 23  1  0  0  0  0
 19 32  1  0  0  0  0
 20 24  1  0  0  0  0
 20 32  1  0  0  0  0
 21 33  1  0  0  0  0
 22 34  1  0  0  0  0
 23 35  1  0  0  0  0
 24 36  1  0  0  0  0
  7 37  1  0  0  0  0
  7 38  1  0  0  0  0
  8 39  1  0  0  0  0
  8 40  1  0  0  0  0
  9 41  1  0  0  0  0
  9 42  1  0  0  0  0
 10 43  1  0  0  0  0
 10 44  1  0  0  0  0
 11 45  1  0  0  0  0
 11 46  1  0  0  0  0
 12 47  1  0  0  0  0
 12 48  1  0  0  0  0
 13 49  1  0  0  0  0
 13 50  1  0  0  0  0
 14 51  1  0  0  0  0
 14 52  1  0  0  0  0
 15 53  1  0  0  0  0
 15 54  1  0  0  0  0
 16 55  1  0  0  0  0
 16 56  1  0  0  0  0
 17 57  1  0  0  0  0
 17 58  1  0  0  0  0
 18 59  1  0  0  0  0
 18 60  1  0  0  0  0
 19 61  1  0  0  0  0
 19 62  1  0  0  0  0
 20 63  1  0  0  0  0
 20 64  1  0  0  0  0
 21 65  1  0  0  0  0
 21 66  1  0  0  0  0
 22 67  1  0  0  0  0
 22 68  1  0  0  0  0
 23 69  1  0  0  0  0
 23 70  1  0  0  0  0
 24 71  1  0  0  0  0
 24 72  1  0  0  0  0
 33 73  1  0  0  0  0
 34 74  1  0  0  0  0
 35 75  1  0  0  0  0
 36 76  1  0  0  0  0
M  END
$$$$
