2-(3-benzoylphenyl)propanoic acid
  -OEChem-02121815223D

 33 34  0     1  0  0  0  0  0999 V2000
    3.4800   -4.9782    4.1158 C   0  0  0  0  0  0  0  0  0  0  0  0
    4.0729   -3.9487    3.3850 C   0  0  0  0  0  0  0  0  0  0  0  0
    2.3201   -4.7334    4.8509 C   0  0  0  0  0  0  0  0  0  0  0  0
   -1.8934   -0.6220    5.0122 C   0  0  0  0  0  0  0  0  0  0  0  0
    3.5060   -2.6742    3.3894 C   0  0  0  0  0  0  0  0  0  0  0  0
    1.7532   -3.4590    4.8553 C   0  0  0  0  0  0  0  0  0  0  0  0
   -0.7353   -0.9233    4.2956 C   0  0  0  0  0  0  0  0  0  0  0  0
   -1.8015   -0.1757    6.3306 C   0  0  0  0  0  0  0  0  0  0  0  0
    0.6066   -0.3321    6.2157 C   0  0  0  0  0  0  0  0  0  0  0  0
    2.3461   -2.4293    4.1245 C   0  0  0  0  0  0  0  0  0  0  0  0
    0.5147   -0.7783    4.8973 C   0  0  0  0  0  0  0  0  0  0  0  0
   -0.5515   -0.0308    6.9323 C   0  0  0  0  0  0  0  0  0  0  0  0
    1.7551   -1.1006    4.1291 C   0  0  0  0  0  0  0  0  0  0  0  0
    0.1687   -0.5986    9.2751 C   0  0  0  0  0  0  0  0  0  0  0  0
    0.3138    1.7756    8.4947 C   0  0  0  0  0  0  0  0  0  0  0  0
   -0.4532    0.4464    8.3421 C   0  0  1  0  0  0  0  0  0  0  0  0
    2.2781   -0.1816    3.4813 O   0  0  0  0  0  0  0  0  0  0  0  0
    0.5681   -1.6977    8.9132 O   0  0  0  0  0  0  0  0  0  0  0  0
    0.2290   -0.1889   10.5699 O   0  0  0  0  0  0  0  0  0  0  0  0
    3.9215   -5.9705    4.1124 H   0  0  0  0  0  0  0  0  0  0  0  0
    4.9761   -4.1394    2.8128 H   0  0  0  0  0  0  0  0  0  0  0  0
    1.8583   -5.5351    5.4197 H   0  0  0  0  0  0  0  0  0  0  0  0
   -2.8668   -0.7360    4.5441 H   0  0  0  0  0  0  0  0  0  0  0  0
    3.9762   -1.8792    2.8163 H   0  0  0  0  0  0  0  0  0  0  0  0
    0.8493   -3.2796    5.4319 H   0  0  0  0  0  0  0  0  0  0  0  0
   -0.8185   -1.2699    3.2686 H   0  0  0  0  0  0  0  0  0  0  0  0
   -2.7092    0.0573    6.8812 H   0  0  0  0  0  0  0  0  0  0  0  0
    1.5805   -0.2195    6.6868 H   0  0  0  0  0  0  0  0  0  0  0  0
    1.3449    1.6905    8.1345 H   0  0  0  0  0  0  0  0  0  0  0  0
   -0.1815    2.5726    7.9294 H   0  0  0  0  0  0  0  0  0  0  0  0
    0.3706    2.0953    9.5412 H   0  0  0  0  0  0  0  0  0  0  0  0
   -1.4751    0.6281    8.7285 H   0  0  0  0  0  0  0  0  0  0  0  0
    0.6157   -0.8357   11.1977 H   0  0  0  0  0  0  0  0  0  0  0  0
  1  2  2  0  0  0  0
  1  3  1  0  0  0  0
  2  5  1  0  0  0  0
  3  6  2  0  0  0  0
  4  7  1  0  0  0  0
  4  8  2  0  0  0  0
  5 10  2  0  0  0  0
  6 10  1  0  0  0  0
  7 11  2  0  0  0  0
  8 12  1  0  0  0  0
  9 11  1  0  0  0  0
  9 12  2  0  0  0  0
 10 13  1  0  0  0  0
 11 13  1  0  0  0  0
 12 16  1  0  0  0  0
 13 17  2  0  0  0  0
 14 16  1  0  0  0  0
 14 18  2  0  0  0  0
 14 19  1  0  0  0  0
 15 16  1  0  0  0  0
  1 20  1  0  0  0  0
  2 21  1  0  0  0  0
  3 22  1  0  0  0  0
  4 23  1  0  0  0  0
  5 24  1  0  0  0  0
  6 25  1  0  0  0  0
  7 26  1  0  0  0  0
  8 27  1  0  0  0  0
  9 28  1  0  0  0  0
 15 29  1  0  0  0  0
 15 30  1  0  0  0  0
 15 31  1  0  0  0  0
 16 32  1  0  0  0  0
 19 33  1  0  0  0  0
M  END
$$$$
