4-(dipropylsulfamoyl)benzoic acid
  -OEChem-02121815223D

 38 38  0     0  0  0  0  0  0999 V2000
   -1.2443    3.7448    2.0517 C   0  0  0  0  0  0  0  0  0  0  0  0
   -2.8478    1.9700    1.7111 C   0  0  0  0  0  0  0  0  0  0  0  0
   -0.3051    2.8120    2.4913 C   0  0  0  0  0  0  0  0  0  0  0  0
   -1.9086    1.0371    2.1507 C   0  0  0  0  0  0  0  0  0  0  0  0
   -2.5157    3.3239    1.6617 C   0  0  0  0  0  0  0  0  0  0  0  0
   -0.6372    1.4581    2.5408 C   0  0  0  0  0  0  0  0  0  0  0  0
   -3.4961    4.2969    1.2068 C   0  0  0  0  0  0  0  0  0  0  0  0
    1.8678   -2.9329    0.5173 C   0  0  0  0  0  0  0  0  0  0  0  0
    4.8472    1.3869    1.1075 C   0  0  0  0  0  0  0  0  0  0  0  0
    1.3361   -1.7586   -0.2921 C   0  0  0  0  0  0  0  0  0  0  0  0
    3.7850    0.4301    1.6300 C   0  0  0  0  0  0  0  0  0  0  0  0
    0.5407   -0.7719    0.5543 C   0  0  0  0  0  0  0  0  0  0  0  0
    2.3909    0.7551    1.1071 C   0  0  0  0  0  0  0  0  0  0  0  0
    1.3576   -0.1698    1.6385 N   0  0  0  0  0  0  0  0  0  0  0  0
   -3.3112    5.5158    1.1261 O   0  0  0  0  0  0  0  0  0  0  0  0
    1.4846    0.9747    3.9666 O   0  0  0  0  0  0  0  0  0  0  0  0
   -0.1789   -0.8671    3.6135 O   0  0  0  0  0  0  0  0  0  0  0  0
   -4.6809    3.7208    0.8638 O   0  0  0  0  0  0  0  0  0  0  0  0
    0.5556    0.2741    3.0992 S   0  0  0  0  0  0  0  0  0  0  0  0
   -0.9754    4.7975    2.0190 H   0  0  0  0  0  0  0  0  0  0  0  0
   -3.8358    1.6308    1.4104 H   0  0  0  0  0  0  0  0  0  0  0  0
    0.6826    3.1502    2.7922 H   0  0  0  0  0  0  0  0  0  0  0  0
   -2.1771   -0.0152    2.1858 H   0  0  0  0  0  0  0  0  0  0  0  0
    2.5220   -2.5885    1.3246 H   0  0  0  0  0  0  0  0  0  0  0  0
    1.0377   -3.4867    0.9674 H   0  0  0  0  0  0  0  0  0  0  0  0
    2.4327   -3.6279   -0.1117 H   0  0  0  0  0  0  0  0  0  0  0  0
    4.8914    1.3644    0.0139 H   0  0  0  0  0  0  0  0  0  0  0  0
    4.6155    2.4115    1.4156 H   0  0  0  0  0  0  0  0  0  0  0  0
    5.8380    1.1352    1.4980 H   0  0  0  0  0  0  0  0  0  0  0  0
    0.6882   -2.1458   -1.0869 H   0  0  0  0  0  0  0  0  0  0  0  0
    2.1752   -1.2467   -0.7780 H   0  0  0  0  0  0  0  0  0  0  0  0
    3.7738    0.4833    2.7249 H   0  0  0  0  0  0  0  0  0  0  0  0
    4.0594   -0.5960    1.3579 H   0  0  0  0  0  0  0  0  0  0  0  0
    0.1807    0.0518   -0.0700 H   0  0  0  0  0  0  0  0  0  0  0  0
   -0.3267   -1.2537    1.0163 H   0  0  0  0  0  0  0  0  0  0  0  0
    2.1028    1.7660    1.4124 H   0  0  0  0  0  0  0  0  0  0  0  0
    2.3549    0.7059    0.0143 H   0  0  0  0  0  0  0  0  0  0  0  0
   -5.3491    4.3691    0.5546 H   0  0  0  0  0  0  0  0  0  0  0  0
  1  3  2  0  0  0  0
  1  5  1  0  0  0  0
  2  4  1  0  0  0  0
  2  5  2  0  0  0  0
  3  6  1  0  0  0  0
  4  6  2  0  0  0  0
  5  7  1  0  0  0  0
  6 19  1  0  0  0  0
  7 15  2  0  0  0  0
  7 18  1  0  0  0  0
  8 10  1  0  0  0  0
  9 11  1  0  0  0  0
 10 12  1  0  0  0  0
 11 13  1  0  0  0  0
 12 14  1  0  0  0  0
 13 14  1  0  0  0  0
 14 19  1  0  0  0  0
 16 19  2  0  0  0  0
 17 19  2  0  0  0  0
  1 20  1  0  0  0  0
  2 21  1  0  0  0  0
  3 22  1  0  0  0  0
  4 23  1  0  0  0  0
  8 24  1  0  0  0  0
  8 25  1  0  0  0  0
  8 26  1  0  0  0  0
  9 27  1  0  0  0  0
  9 28  1  0  0  0  0
  9 29  1  0  0  0  0
 10 30  1  0  0  0  0
 10 31  1  0  0  0  0
 11 32  1  0  0  0  0
 11 33  1  0  0  0  0
 12 34  1  0  0  0  0
 12 35  1  0  0  0  0
 13 36  1  0  0  0  0
 13 37  1  0  0  0  0
 18 38  1  0  0  0  0
M  END
$$$$
