5-(4-chlorophenyl)-6-ethyl-pyrimidine-2,4-diamine
  -OEChem-02121815223D

 30 31  0     0  0  0  0  0  0999 V2000
    1.6465   -2.1837    0.4830 C   0  0  0  0  0  0  0  0  0  0  0  0
    3.1172   -0.5045    1.4071 C   0  0  0  0  0  0  0  0  0  0  0  0
    0.5683   -1.6103    1.1570 C   0  0  0  0  0  0  0  0  0  0  0  0
    2.0390    0.0690    2.0810 C   0  0  0  0  0  0  0  0  0  0  0  0
    2.9210   -1.6309    0.6081 C   0  0  0  0  0  0  0  0  0  0  0  0
    4.0396   -2.2261   -0.0905 C   0  0  0  0  0  0  0  0  0  0  0  0
    0.7645   -0.4839    1.9559 C   0  0  0  0  0  0  0  0  0  0  0  0
    4.3915   -1.8329   -1.3656 C   0  0  0  0  0  0  0  0  0  0  0  0
    4.8220   -3.2173    0.4659 C   0  0  0  0  0  0  0  0  0  0  0  0
    6.1118   -3.3183   -1.4031 C   0  0  0  0  0  0  0  0  0  0  0  0
    4.3591    0.5690   -2.0840 C   0  0  0  0  0  0  0  0  0  0  0  0
    3.6252   -0.7681   -2.0820 C   0  0  0  0  0  0  0  0  0  0  0  0
    5.4255   -2.3596   -2.0539 N   0  0  0  0  0  0  0  0  0  0  0  0
    5.8695   -3.7879   -0.1644 N   0  0  0  0  0  0  0  0  0  0  0  0
    4.5200   -3.6724    1.7739 N   0  0  0  0  0  0  0  0  0  0  0  0
    7.2014   -3.8926   -2.0933 N   0  0  0  0  0  0  0  0  0  0  0  0
   -0.5662    0.2222    2.7884 Cl  0  0  0  0  0  0  0  0  0  0  0  0
    1.4776   -3.0618   -0.1359 H   0  0  0  0  0  0  0  0  0  0  0  0
    4.1049   -0.0624    1.5154 H   0  0  0  0  0  0  0  0  0  0  0  0
   -0.4194   -2.0525    1.0521 H   0  0  0  0  0  0  0  0  0  0  0  0
    2.2067    0.9460    2.7012 H   0  0  0  0  0  0  0  0  0  0  0  0
    4.5714    0.9033   -1.0628 H   0  0  0  0  0  0  0  0  0  0  0  0
    3.7555    1.3392   -2.5742 H   0  0  0  0  0  0  0  0  0  0  0  0
    5.3124    0.4942   -2.6180 H   0  0  0  0  0  0  0  0  0  0  0  0
    3.4278   -1.0744   -3.1206 H   0  0  0  0  0  0  0  0  0  0  0  0
    2.6342   -0.6368   -1.6212 H   0  0  0  0  0  0  0  0  0  0  0  0
    3.7805   -3.2330    2.2771 H   0  0  0  0  0  0  0  0  0  0  0  0
    5.1129   -4.3542    2.1943 H   0  0  0  0  0  0  0  0  0  0  0  0
    7.3871   -3.6070   -3.0327 H   0  0  0  0  0  0  0  0  0  0  0  0
    7.7083   -4.6400   -1.6656 H   0  0  0  0  0  0  0  0  0  0  0  0
  1  3  2  0  0  0  0
  1  5  1  0  0  0  0
  2  4  1  0  0  0  0
  2  5  2  0  0  0  0
  3  7  1  0  0  0  0
  4  7  2  0  0  0  0
  5  6  1  0  0  0  0
  6  8  2  0  0  0  0
  6  9  1  0  0  0  0
  7 17  1  0  0  0  0
  8 12  1  0  0  0  0
  8 13  1  0  0  0  0
  9 14  2  0  0  0  0
  9 15  1  0  0  0  0
 10 13  2  0  0  0  0
 10 14  1  0  0  0  0
 10 16  1  0  0  0  0
 11 12  1  0  0  0  0
  1 18  1  0  0  0  0
  2 19  1  0  0  0  0
  3 20  1  0  0  0  0
  4 21  1  0  0  0  0
 11 22  1  0  0  0  0
 11 23  1  0  0  0  0
 11 24  1  0  0  0  0
 12 25  1  0  0  0  0
 12 26  1  0  0  0  0
 15 27  1  0  0  0  0
 15 28  1  0  0  0  0
 16 29  1  0  0  0  0
 16 30  1  0  0  0  0
M  END
$$$$
