2-hydroxybenzoic acid
  -OEChem-02121815223D

 16 16  0     0  0  0  0  0  0999 V2000
    1.8851   -1.0363   -0.1124 C   0  0  0  0  0  0  0  0  0  0  0  0
    0.8066   -0.4630    0.5610 C   0  0  0  0  0  0  0  0  0  0  0  0
    2.9210   -1.6309    0.6081 C   0  0  0  0  0  0  0  0  0  0  0  0
    0.7638   -0.4841    1.9551 C   0  0  0  0  0  0  0  0  0  0  0  0
    2.8783   -1.6520    2.0022 C   0  0  0  0  0  0  0  0  0  0  0  0
    1.7997   -1.0786    2.6757 C   0  0  0  0  0  0  0  0  0  0  0  0
    3.9701   -2.2777    2.7351 C   0  0  0  0  0  0  0  0  0  0  0  0
    4.3539   -1.9504    3.8616 O   0  0  0  0  0  0  0  0  0  0  0  0
    1.7389   -1.0910    4.0373 O   0  0  0  0  0  0  0  0  0  0  0  0
    4.5474   -3.2936    2.0381 O   0  0  0  0  0  0  0  0  0  0  0  0
    1.9181   -1.0197   -1.1981 H   0  0  0  0  0  0  0  0  0  0  0  0
    0.0007    0.0002   -0.0006 H   0  0  0  0  0  0  0  0  0  0  0  0
    3.7563   -2.0749    0.0727 H   0  0  0  0  0  0  0  0  0  0  0  0
   -0.0794   -0.0358    2.4735 H   0  0  0  0  0  0  0  0  0  0  0  0
    2.5206   -1.5337    4.4029 H   0  0  0  0  0  0  0  0  0  0  0  0
    5.2839   -3.7225    2.5239 H   0  0  0  0  0  0  0  0  0  0  0  0
  1  2  1  0  0  0  0
  1  3  2  0  0  0  0
  2  4  2  0  0  0  0
  3  5  1  0  0  0  0
  4  6  1  0  0  0  0
  5  6  2  0  0  0  0
  5  7  1  0  0  0  0
  6  9  1  0  0  0  0
  7  8  2  0  0  0  0
  7 10  1  0  0  0  0
  1 11  1  0  0  0  0
  2 12  1  0  0  0  0
  3 13  1  0  0  0  0
  4 14  1  0  0  0  0
  9 15  1  0  0  0  0
 10 16  1  0  0  0  0
M  END
$$$$
