1-(4-~{tert}-butylphenyl)-4-[4-[hydroxy(diphenyl)methyl]-1-piperidyl]butan-1-ol
  -OEChem-02121815223D

 76 79  0     1  0  0  0  0  0999 V2000
    3.8954    2.1621   -2.9185 C   0  0  0  0  0  0  0  0  0  0  0  0
   -1.0112    6.7790   -0.6175 C   0  0  0  0  0  0  0  0  0  0  0  0
    3.8747    2.9983   -1.8023 C   0  0  0  0  0  0  0  0  0  0  0  0
    2.7404    1.4794   -3.3000 C   0  0  0  0  0  0  0  0  0  0  0  0
   -1.4583    5.9196   -1.6210 C   0  0  0  0  0  0  0  0  0  0  0  0
   -0.1587    6.3037    0.3791 C   0  0  0  0  0  0  0  0  0  0  0  0
    2.6991    3.1516   -1.0675 C   0  0  0  0  0  0  0  0  0  0  0  0
    1.5648    1.6327   -2.5652 C   0  0  0  0  0  0  0  0  0  0  0  0
   -1.0531    4.5850   -1.6280 C   0  0  0  0  0  0  0  0  0  0  0  0
    0.2465    4.9691    0.3721 C   0  0  0  0  0  0  0  0  0  0  0  0
   -5.2901   -0.4549    5.9569 C   0  0  0  0  0  0  0  0  0  0  0  0
   -5.1830    0.0641    3.5998 C   0  0  0  0  0  0  0  0  0  0  0  0
   -6.0618    0.6866    6.1733 C   0  0  0  0  0  0  0  0  0  0  0  0
   -5.9549    1.2057    3.8161 C   0  0  0  0  0  0  0  0  0  0  0  0
   -4.8506   -0.7661    4.6701 C   0  0  0  0  0  0  0  0  0  0  0  0
    1.5441    2.4688   -1.4489 C   0  0  0  0  0  0  0  0  0  0  0  0
   -0.2006    4.1096   -0.6314 C   0  0  0  0  0  0  0  0  0  0  0  0
   -6.3942    1.5169    5.1029 C   0  0  0  0  0  0  0  0  0  0  0  0
    0.7568    0.5080    0.6123 C   0  0  0  0  0  0  0  0  0  0  0  0
   -0.8460    2.1711    1.5860 C   0  0  0  0  0  0  0  0  0  0  0  0
    0.8306   -0.1625    1.9857 C   0  0  0  0  0  0  0  0  0  0  0  0
   -0.7187    1.4459    2.9273 C   0  0  0  0  0  0  0  0  0  0  0  0
    0.4174    1.9972    0.7364 C   0  0  0  0  0  0  0  0  0  0  0  0
   -6.5202    3.7143    6.3283 C   0  0  0  0  0  0  0  0  0  0  0  0
   -8.6125    2.3705    5.9380 C   0  0  0  0  0  0  0  0  0  0  0  0
   -7.5312    3.5896    4.0603 C   0  0  0  0  0  0  0  0  0  0  0  0
   -1.7306   -0.8644    4.6481 C   0  0  0  0  0  0  0  0  0  0  0  0
   -2.6559   -1.7190    3.7744 C   0  0  0  0  0  0  0  0  0  0  0  0
   -0.3536   -0.6689    4.0210 C   0  0  0  0  0  0  0  0  0  0  0  0
   -4.0145   -2.0026    4.4349 C   0  0  2  0  0  0  0  0  0  0  0  0
    0.2466    2.6374   -0.6384 C   0  0  0  0  0  0  0  0  0  0  0  0
   -7.2209    2.7364    5.3348 C   0  0  0  0  0  0  0  0  0  0  0  0
   -0.4210    0.0206    2.7327 N   0  0  0  0  0  0  0  0  0  0  0  0
   -4.7633   -2.8876    3.5995 O   0  0  0  0  0  0  0  0  0  0  0  0
   -0.8159    1.8849   -1.2628 O   0  0  0  0  0  0  0  0  0  0  0  0
    4.8105    2.0439   -3.4914 H   0  0  0  0  0  0  0  0  0  0  0  0
   -1.3257    7.8186   -0.6130 H   0  0  0  0  0  0  0  0  0  0  0  0
    4.7737    3.5308   -1.5058 H   0  0  0  0  0  0  0  0  0  0  0  0
    2.7558    0.8291   -4.1697 H   0  0  0  0  0  0  0  0  0  0  0  0
   -2.1212    6.2898   -2.3977 H   0  0  0  0  0  0  0  0  0  0  0  0
    0.1905    6.9728    1.1599 H   0  0  0  0  0  0  0  0  0  0  0  0
    2.6924    3.8051   -0.1990 H   0  0  0  0  0  0  0  0  0  0  0  0
    0.6697    1.0967   -2.8697 H   0  0  0  0  0  0  0  0  0  0  0  0
   -1.4066    3.9226   -2.4138 H   0  0  0  0  0  0  0  0  0  0  0  0
    0.9107    4.6076    1.1527 H   0  0  0  0  0  0  0  0  0  0  0  0
   -5.0353   -1.0958    6.7969 H   0  0  0  0  0  0  0  0  0  0  0  0
   -4.8458   -0.1716    2.5937 H   0  0  0  0  0  0  0  0  0  0  0  0
   -6.4011    0.9205    7.1788 H   0  0  0  0  0  0  0  0  0  0  0  0
   -6.2092    1.8473    2.9766 H   0  0  0  0  0  0  0  0  0  0  0  0
    1.7166    0.3852    0.0962 H   0  0  0  0  0  0  0  0  0  0  0  0
   -0.0002    0.0001    0.0002 H   0  0  0  0  0  0  0  0  0  0  0  0
   -1.7190    1.7832    1.0445 H   0  0  0  0  0  0  0  0  0  0  0  0
   -1.0319    3.2368    1.7656 H   0  0  0  0  0  0  0  0  0  0  0  0
    1.0183   -1.2323    1.8326 H   0  0  0  0  0  0  0  0  0  0  0  0
    1.6841    0.2407    2.5468 H   0  0  0  0  0  0  0  0  0  0  0  0
    0.0581    1.9288    3.5348 H   0  0  0  0  0  0  0  0  0  0  0  0
   -1.6680    1.5564    3.4655 H   0  0  0  0  0  0  0  0  0  0  0  0
    1.2498    2.5016    1.2451 H   0  0  0  0  0  0  0  0  0  0  0  0
   -7.1079    4.6204    6.5163 H   0  0  0  0  0  0  0  0  0  0  0  0
   -6.3432    3.2404    7.3001 H   0  0  0  0  0  0  0  0  0  0  0  0
   -5.5463    4.0246    5.9314 H   0  0  0  0  0  0  0  0  0  0  0  0
   -9.2229    3.2637    6.1098 H   0  0  0  0  0  0  0  0  0  0  0  0
   -9.1941    1.7054    5.2887 H   0  0  0  0  0  0  0  0  0  0  0  0
   -8.4866    1.8672    6.9039 H   0  0  0  0  0  0  0  0  0  0  0  0
   -8.1407    4.4740    4.2818 H   0  0  0  0  0  0  0  0  0  0  0  0
   -6.6050    3.9459    3.5944 H   0  0  0  0  0  0  0  0  0  0  0  0
   -8.0808    2.9976    3.3191 H   0  0  0  0  0  0  0  0  0  0  0  0
   -1.6037   -1.3545    5.6211 H   0  0  0  0  0  0  0  0  0  0  0  0
   -2.1866    0.1150    4.8346 H   0  0  0  0  0  0  0  0  0  0  0  0
   -2.8036   -1.2439    2.7965 H   0  0  0  0  0  0  0  0  0  0  0  0
   -2.1652   -2.6775    3.5593 H   0  0  0  0  0  0  0  0  0  0  0  0
    0.1516   -1.6269    3.8633 H   0  0  0  0  0  0  0  0  0  0  0  0
    0.2733   -0.0578    4.6781 H   0  0  0  0  0  0  0  0  0  0  0  0
   -3.8535   -2.5300    5.3829 H   0  0  0  0  0  0  0  0  0  0  0  0
   -4.2078   -3.6696    3.4640 H   0  0  0  0  0  0  0  0  0  0  0  0
   -1.5936    2.0313   -0.7113 H   0  0  0  0  0  0  0  0  0  0  0  0
  1  3  1  0  0  0  0
  1  4  2  0  0  0  0
  2  5  1  0  0  0  0
  2  6  2  0  0  0  0
  3  7  2  0  0  0  0
  4  8  1  0  0  0  0
  5  9  2  0  0  0  0
  6 10  1  0  0  0  0
  7 16  1  0  0  0  0
  8 16  2  0  0  0  0
  9 17  1  0  0  0  0
 10 17  2  0  0  0  0
 11 13  2  0  0  0  0
 11 15  1  0  0  0  0
 12 14  1  0  0  0  0
 12 15  2  0  0  0  0
 13 18  1  0  0  0  0
 14 18  2  0  0  0  0
 15 30  1  0  0  0  0
 16 31  1  0  0  0  0
 17 31  1  0  0  0  0
 18 32  1  0  0  0  0
 19 21  1  0  0  0  0
 19 23  1  0  0  0  0
 20 22  1  0  0  0  0
 20 23  1  0  0  0  0
 21 33  1  0  0  0  0
 22 33  1  0  0  0  0
 23 31  1  0  0  0  0
 24 32  1  0  0  0  0
 25 32  1  0  0  0  0
 26 32  1  0  0  0  0
 27 28  1  0  0  0  0
 27 29  1  0  0  0  0
 28 30  1  0  0  0  0
 29 33  1  0  0  0  0
 30 34  1  0  0  0  0
 31 35  1  0  0  0  0
  1 36  1  0  0  0  0
  2 37  1  0  0  0  0
  3 38  1  0  0  0  0
  4 39  1  0  0  0  0
  5 40  1  0  0  0  0
  6 41  1  0  0  0  0
  7 42  1  0  0  0  0
  8 43  1  0  0  0  0
  9 44  1  0  0  0  0
 10 45  1  0  0  0  0
 11 46  1  0  0  0  0
 12 47  1  0  0  0  0
 13 48  1  0  0  0  0
 14 49  1  0  0  0  0
 19 50  1  0  0  0  0
 19 51  1  0  0  0  0
 20 52  1  0  0  0  0
 20 53  1  0  0  0  0
 21 54  1  0  0  0  0
 21 55  1  0  0  0  0
 22 56  1  0  0  0  0
 22 57  1  0  0  0  0
 23 58  1  0  0  0  0
 24 59  1  0  0  0  0
 24 60  1  0  0  0  0
 24 61  1  0  0  0  0
 25 62  1  0  0  0  0
 25 63  1  0  0  0  0
 25 64  1  0  0  0  0
 26 65  1  0  0  0  0
 26 66  1  0  0  0  0
 26 67  1  0  0  0  0
 27 68  1  0  0  0  0
 27 69  1  0  0  0  0
 28 70  1  0  0  0  0
 28 71  1  0  0  0  0
 29 72  1  0  0  0  0
 29 73  1  0  0  0  0
 30 74  1  0  0  0  0
 34 75  1  0  0  0  0
 35 76  1  0  0  0  0
M  END
$$$$
