guest
  -OEChem-12051716363D

 21 21  0     0  0  0  0  0  0999 V2000
    0.8040   -2.7040   -5.9630 O   0  0  0  0  0  0  0  0  0  0  0  0
    0.2990   -2.5730   -4.7100 C   0  0  0  0  0  0  0  0  0  0  0  0
    0.5910   -1.1930   -4.1770 C   0  0  0  0  0  0  0  0  0  0  0  0
    0.0450   -0.9980   -2.7730 C   0  0  0  0  0  0  0  0  0  0  0  0
    0.6370    0.2130   -2.0600 C   0  0  0  0  0  0  0  0  0  0  0  0
   -0.3400    0.4880   -0.9210 C   0  0  0  0  0  0  0  0  0  0  0  0
   -1.6800   -0.1060   -1.3570 C   0  0  0  0  0  0  0  0  0  0  0  0
   -1.4490   -0.6930   -2.7460 C   0  0  0  0  0  0  0  0  0  0  0  0
   -0.3000   -3.4610   -4.1220 O   0  0  0  0  0  0  0  0  0  0  0  0
    1.2510   -1.8850   -6.2650 H   0  0  0  0  0  0  0  0  0  0  0  0
    0.1360   -0.4580   -4.8490 H   0  0  0  0  0  0  0  0  0  0  0  0
    1.6760   -1.0480   -4.1670 H   0  0  0  0  0  0  0  0  0  0  0  0
    0.2420   -1.9010   -2.1810 H   0  0  0  0  0  0  0  0  0  0  0  0
    1.6520    0.0270   -1.6940 H   0  0  0  0  0  0  0  0  0  0  0  0
    0.6760    1.0810   -2.7300 H   0  0  0  0  0  0  0  0  0  0  0  0
    0.0010    0.0010    0.0000 H   0  0  0  0  0  0  0  0  0  0  0  0
   -0.4170    1.5600   -0.7140 H   0  0  0  0  0  0  0  0  0  0  0  0
   -1.9820   -0.8930   -0.6570 H   0  0  0  0  0  0  0  0  0  0  0  0
   -2.4750    0.6460   -1.3690 H   0  0  0  0  0  0  0  0  0  0  0  0
   -2.0610   -1.5830   -2.9210 H   0  0  0  0  0  0  0  0  0  0  0  0
   -1.7110    0.0500   -3.5100 H   0  0  0  0  0  0  0  0  0  0  0  0
  1  2  1  0  0  0  0
  2  3  1  0  0  0  0
  3  4  1  0  0  0  0
  4  8  1  0  0  0  0
  4  5  1  0  0  0  0
  5  6  1  0  0  0  0
  6  7  1  0  0  0  0
  7  8  1  0  0  0  0
  2  9  2  0  0  0  0
  1 10  1  0  0  0  0
  3 11  1  0  0  0  0
  3 12  1  0  0  0  0
  4 13  1  0  0  0  0
  5 14  1  0  0  0  0
  5 15  1  0  0  0  0
  6 16  1  0  0  0  0
  6 17  1  0  0  0  0
  7 18  1  0  0  0  0
  7 19  1  0  0  0  0
  8 20  1  0  0  0  0
  8 21  1  0  0  0  0
M  END
> <partial_charges>
-0.6101999878883362
0.6347000002861023
-0.11749999970197678
-0.06430000066757202
-0.07559999823570251
-0.08030000329017639
-0.08030000329017639
-0.07559999823570251
-0.5472999811172485
0.43950000405311584
0.08020000159740448
0.08020000159740448
0.05570000037550926
0.04780000075697899
0.04780000075697899
0.042399998754262924
0.042399998754262924
0.042399998754262924
0.042399998754262924
0.04780000075697899
0.04780000075697899


> <partial_bond_orders>
1.0
1.0
1.0
1.0
1.0
1.0
1.0
1.0
2.0
1.0
1.0
1.0
1.0
1.0
1.0
1.0
1.0
1.0
1.0
1.0
1.0


> <atom_types>
oh
c
c3
c3
c3
c3
c3
c3
o
ho
hc
hc
hc
hc
hc
hc
hc
hc
hc
hc
hc


$$$$
