@<TRIPOS>MOLECULE
ZBL
21 21 1 0 1
SMALL
USER_CHARGES
@<TRIPOS>ATOM
       1 O1           0.8040    -2.7040    -5.9630 oh            1 ZBL       -0.610200
       2 C1           0.2990    -2.5730    -4.7100 c             1 ZBL        0.634700
       3 C2           0.5910    -1.1930    -4.1770 c3            1 ZBL       -0.117500
       4 C3           0.0450    -0.9980    -2.7730 c3            1 ZBL       -0.064300
       5 C4           0.6370     0.2130    -2.0600 c3            1 ZBL       -0.075600
       6 C5          -0.3400     0.4880    -0.9210 c3            1 ZBL       -0.080300
       7 C6          -1.6800    -0.1060    -1.3570 c3            1 ZBL       -0.080300
       8 C7          -1.4490    -0.6930    -2.7460 c3            1 ZBL       -0.075600
       9 O2          -0.3000    -3.4610    -4.1220 o             1 ZBL       -0.547300
      10 H1           1.2510    -1.8850    -6.2650 ho            1 ZBL        0.439500
      11 H2           0.1360    -0.4580    -4.8490 hc            1 ZBL        0.080200
      12 H3           1.6760    -1.0480    -4.1670 hc            1 ZBL        0.080200
      13 H4           0.2420    -1.9010    -2.1810 hc            1 ZBL        0.055700
      14 H5           1.6520     0.0270    -1.6940 hc            1 ZBL        0.047800
      15 H6           0.6760     1.0810    -2.7300 hc            1 ZBL        0.047800
      16 H7           0.0010     0.0010     0.0000 hc            1 ZBL        0.042400
      17 H8          -0.4170     1.5600    -0.7140 hc            1 ZBL        0.042400
      18 H9          -1.9820    -0.8930    -0.6570 hc            1 ZBL        0.042400
      19 H10         -2.4750     0.6460    -1.3690 hc            1 ZBL        0.042400
      20 H11         -2.0610    -1.5830    -2.9210 hc            1 ZBL        0.047800
      21 H12         -1.7110     0.0500    -3.5100 hc            1 ZBL        0.047800
@<TRIPOS>BOND
       1        1        2 1
       2        2        3 1
       3        3        4 1
       4        4        8 1
       5        4        5 1
       6        5        6 1
       7        6        7 1
       8        7        8 1
       9        2        9 2
      10        1       10 1
      11        3       11 1
      12        3       12 1
      13        4       13 1
      14        5       14 1
      15        5       15 1
      16        6       16 1
      17        6       17 1
      18        7       18 1
      19        7       19 1
      20        8       20 1
      21        8       21 1
@<TRIPOS>SUBSTRUCTURE
       1 ZBL             1 RESIDUE    0 **** ROOT      0
