@<TRIPOS>MOLECULE
ZOZ
3 2 1 0 1
SMALL
USER_CHARGES
@<TRIPOS>ATOM
       1 O1           0.0610     0.3890     0.0590 oh            1 ZOZ       -0.785000
       2 H1           0.7240    -0.3120    -0.0380 ho            1 ZOZ        0.392500
       3 H2          -0.7850    -0.0770    -0.0210 ho            1 ZOZ        0.392500
@<TRIPOS>BOND
       1        1        2 1
       2        1        3 1
@<TRIPOS>SUBSTRUCTURE
       1 ZOZ             1 RESIDUE    0 **** ROOT      0
