water
  -OEChem-12051716363D

  3  2  0     0  0  0  0  0  0999 V2000
    0.0610    0.3890    0.0590 O   0  0  0  0  0  0  0  0  0  0  0  0
    0.7240   -0.3120   -0.0380 H   0  0  0  0  0  0  0  0  0  0  0  0
   -0.7850   -0.0770   -0.0210 H   0  0  0  0  0  0  0  0  0  0  0  0
  1  2  1  0  0  0  0
  1  3  1  0  0  0  0
M  END
> <partial_charges>
-0.7850000262260437
0.39250001311302185
0.39250001311302185


> <partial_bond_orders>
1.0
1.0


> <atom_types>
oh
ho
ho


$$$$
