1-benzylimidazole
  -OEChem-02121815193D

 22 23  0     0  0  0  0  0  0999 V2000
    1.8851   -1.0363   -0.1124 C   0  0  0  0  0  0  0  0  0  0  0  0
    0.8066   -0.4630    0.5610 C   0  0  0  0  0  0  0  0  0  0  0  0
    2.9210   -1.6309    0.6081 C   0  0  0  0  0  0  0  0  0  0  0  0
    0.7638   -0.4841    1.9551 C   0  0  0  0  0  0  0  0  0  0  0  0
    2.8783   -1.6520    2.0022 C   0  0  0  0  0  0  0  0  0  0  0  0
    2.0004    2.2631    5.4380 C   0  0  0  0  0  0  0  0  0  0  0  0
    1.2500    1.2860    4.8276 C   0  0  0  0  0  0  0  0  0  0  0  0
    3.2802    0.5682    5.2963 C   0  0  0  0  0  0  0  0  0  0  0  0
    1.7997   -1.0786    2.6757 C   0  0  0  0  0  0  0  0  0  0  0  0
    1.7548   -1.1014    4.1663 C   0  0  0  0  0  0  0  0  0  0  0  0
    3.2634    1.8101    5.7269 N   0  0  0  0  0  0  0  0  0  0  0  0
    2.0833    0.2064    4.7433 N   0  0  0  0  0  0  0  0  0  0  0  0
    1.9176   -1.0210   -1.1980 H   0  0  0  0  0  0  0  0  0  0  0  0
   -0.0006   -0.0010    0.0001 H   0  0  0  0  0  0  0  0  0  0  0  0
    3.7604   -2.0783    0.0841 H   0  0  0  0  0  0  0  0  0  0  0  0
   -0.0804   -0.0348    2.4713 H   0  0  0  0  0  0  0  0  0  0  0  0
    3.6899   -2.1173    2.5553 H   0  0  0  0  0  0  0  0  0  0  0  0
    1.6956    3.2698    5.6840 H   0  0  0  0  0  0  0  0  0  0  0  0
    0.2335    1.2669    4.4600 H   0  0  0  0  0  0  0  0  0  0  0  0
    4.1207   -0.1097    5.3565 H   0  0  0  0  0  0  0  0  0  0  0  0
    0.7603   -1.3910    4.5415 H   0  0  0  0  0  0  0  0  0  0  0  0
    2.4594   -1.8369    4.5861 H   0  0  0  0  0  0  0  0  0  0  0  0
  1  2  2  0  0  0  0
  1  3  1  0  0  0  0
  2  4  1  0  0  0  0
  3  5  2  0  0  0  0
  4  9  2  0  0  0  0
  5  9  1  0  0  0  0
  6  7  2  0  0  0  0
  6 11  1  0  0  0  0
  7 12  1  0  0  0  0
  8 11  2  0  0  0  0
  8 12  1  0  0  0  0
  9 10  1  0  0  0  0
 10 12  1  0  0  0  0
  1 13  1  0  0  0  0
  2 14  1  0  0  0  0
  3 15  1  0  0  0  0
  4 16  1  0  0  0  0
  5 17  1  0  0  0  0
  6 18  1  0  0  0  0
  7 19  1  0  0  0  0
  8 20  1  0  0  0  0
 10 21  1  0  0  0  0
 10 22  1  0  0  0  0
M  END
$$$$
