1,10-phenanthroline
  -OEChem-02121815213D

 22 24  0     0  0  0  0  0  0999 V2000
    6.7292    4.1969   -1.2768 C   0  0  0  0  0  0  0  0  0  0  0  0
    0.8917    0.5863   -0.1872 C   0  0  0  0  0  0  0  0  0  0  0  0
    5.5300    4.6714   -1.7842 C   0  0  0  0  0  0  0  0  0  0  0  0
    0.8368    1.7686   -0.9083 C   0  0  0  0  0  0  0  0  0  0  0  0
    3.1263    4.4258   -2.0817 C   0  0  0  0  0  0  0  0  0  0  0  0
    1.9609    3.7050   -1.8642 C   0  0  0  0  0  0  0  0  0  0  0  0
    6.6943    3.0134   -0.5716 C   0  0  0  0  0  0  0  0  0  0  0  0
    2.1246    0.1870    0.2813 C   0  0  0  0  0  0  0  0  0  0  0  0
    4.3421    3.9575   -1.5750 C   0  0  0  0  0  0  0  0  0  0  0  0
    2.0032    2.5109   -1.1384 C   0  0  0  0  0  0  0  0  0  0  0  0
    4.3969    2.7519   -0.8398 C   0  0  0  0  0  0  0  0  0  0  0  0
    3.2265    2.0280   -0.6214 C   0  0  0  0  0  0  0  0  0  0  0  0
    5.5685    2.2970   -0.3493 N   0  0  0  0  0  0  0  0  0  0  0  0
    3.2712    0.8760    0.0795 N   0  0  0  0  0  0  0  0  0  0  0  0
    7.6562    4.7369   -1.4284 H   0  0  0  0  0  0  0  0  0  0  0  0
   -0.0004    0.0004   -0.0003 H   0  0  0  0  0  0  0  0  0  0  0  0
    5.5270    5.6031   -2.3455 H   0  0  0  0  0  0  0  0  0  0  0  0
   -0.1232    2.1089   -1.2906 H   0  0  0  0  0  0  0  0  0  0  0  0
    3.0760    5.3532   -2.6474 H   0  0  0  0  0  0  0  0  0  0  0  0
    1.0232    4.0834   -2.2645 H   0  0  0  0  0  0  0  0  0  0  0  0
    7.5996    2.5900   -0.1494 H   0  0  0  0  0  0  0  0  0  0  0  0
    2.2331   -0.7288    0.8528 H   0  0  0  0  0  0  0  0  0  0  0  0
  1  3  2  0  0  0  0
  1  7  1  0  0  0  0
  2  4  2  0  0  0  0
  2  8  1  0  0  0  0
  3  9  1  0  0  0  0
  4 10  1  0  0  0  0
  5  6  2  0  0  0  0
  5  9  1  0  0  0  0
  6 10  1  0  0  0  0
  7 13  2  0  0  0  0
  8 14  2  0  0  0  0
  9 11  2  0  0  0  0
 10 12  2  0  0  0  0
 11 12  1  0  0  0  0
 11 13  1  0  0  0  0
 12 14  1  0  0  0  0
  1 15  1  0  0  0  0
  2 16  1  0  0  0  0
  3 17  1  0  0  0  0
  4 18  1  0  0  0  0
  5 19  1  0  0  0  0
  6 20  1  0  0  0  0
  7 21  1  0  0  0  0
  8 22  1  0  0  0  0
M  END
$$$$
