4-hydroxybenzoic acid
  -OEChem-02121815203D

 16 16  0     0  0  0  0  0  0999 V2000
    1.8851   -1.0363   -0.1124 C   0  0  0  0  0  0  0  0  0  0  0  0
    2.8783   -1.6520    2.0022 C   0  0  0  0  0  0  0  0  0  0  0  0
    0.8066   -0.4630    0.5610 C   0  0  0  0  0  0  0  0  0  0  0  0
    1.7997   -1.0786    2.6757 C   0  0  0  0  0  0  0  0  0  0  0  0
    2.9210   -1.6309    0.6081 C   0  0  0  0  0  0  0  0  0  0  0  0
    0.7638   -0.4841    1.9551 C   0  0  0  0  0  0  0  0  0  0  0  0
    4.0457   -2.2285   -0.0938 C   0  0  0  0  0  0  0  0  0  0  0  0
    4.1859   -2.2662   -1.3207 O   0  0  0  0  0  0  0  0  0  0  0  0
   -0.2886    0.0750    2.6125 O   0  0  0  0  0  0  0  0  0  0  0  0
    4.9658   -2.7619    0.7560 O   0  0  0  0  0  0  0  0  0  0  0  0
    1.9078   -1.0136   -1.1990 H   0  0  0  0  0  0  0  0  0  0  0  0
    3.6806   -2.1126    2.5729 H   0  0  0  0  0  0  0  0  0  0  0  0
    0.0026   -0.0015   -0.0059 H   0  0  0  0  0  0  0  0  0  0  0  0
    1.7717   -1.0984    3.7617 H   0  0  0  0  0  0  0  0  0  0  0  0
   -0.9231    0.4452    1.9782 H   0  0  0  0  0  0  0  0  0  0  0  0
    5.7293   -3.1669    0.2920 H   0  0  0  0  0  0  0  0  0  0  0  0
  1  3  1  0  0  0  0
  1  5  2  0  0  0  0
  2  4  2  0  0  0  0
  2  5  1  0  0  0  0
  3  6  2  0  0  0  0
  4  6  1  0  0  0  0
  5  7  1  0  0  0  0
  6  9  1  0  0  0  0
  7  8  2  0  0  0  0
  7 10  1  0  0  0  0
  1 11  1  0  0  0  0
  2 12  1  0  0  0  0
  3 13  1  0  0  0  0
  4 14  1  0  0  0  0
  9 15  1  0  0  0  0
 10 16  1  0  0  0  0
M  END
$$$$
