4-iodophenol
  -OEChem-02121815203D

 13 13  0     0  0  0  0  0  0999 V2000
    1.8851   -1.0363   -0.1124 C   0  0  0  0  0  0  0  0  0  0  0  0
    2.8783   -1.6520    2.0022 C   0  0  0  0  0  0  0  0  0  0  0  0
    0.8066   -0.4630    0.5610 C   0  0  0  0  0  0  0  0  0  0  0  0
    1.7997   -1.0786    2.6757 C   0  0  0  0  0  0  0  0  0  0  0  0
    2.9210   -1.6309    0.6081 C   0  0  0  0  0  0  0  0  0  0  0  0
    0.7638   -0.4841    1.9551 C   0  0  0  0  0  0  0  0  0  0  0  0
    3.9732   -2.1915   -0.0485 O   0  0  0  0  0  0  0  0  0  0  0  0
   -0.8427    0.3696    2.9581 I   0  0  0  0  0  0  0  0  0  0  0  0
    1.9129   -1.0164   -1.1986 H   0  0  0  0  0  0  0  0  0  0  0  0
    3.6821   -2.1150    2.5684 H   0  0  0  0  0  0  0  0  0  0  0  0
    0.0094   -0.0060   -0.0196 H   0  0  0  0  0  0  0  0  0  0  0  0
    1.7854   -1.1066    3.7623 H   0  0  0  0  0  0  0  0  0  0  0  0
    3.8591   -2.0987   -1.0077 H   0  0  0  0  0  0  0  0  0  0  0  0
  1  3  1  0  0  0  0
  1  5  2  0  0  0  0
  2  4  2  0  0  0  0
  2  5  1  0  0  0  0
  3  6  2  0  0  0  0
  4  6  1  0  0  0  0
  5  7  1  0  0  0  0
  6  8  1  0  0  0  0
  1  9  1  0  0  0  0
  2 10  1  0  0  0  0
  3 11  1  0  0  0  0
  4 12  1  0  0  0  0
  7 13  1  0  0  0  0
M  END
$$$$
