5-bromo-2,4-dihydroxy-benzoic acid
  -OEChem-02121815193D

 17 17  0     0  0  0  0  0  0999 V2000
    1.8851   -1.0363   -0.1124 C   0  0  0  0  0  0  0  0  0  0  0  0
    1.7997   -1.0786    2.6757 C   0  0  0  0  0  0  0  0  0  0  0  0
    0.8066   -0.4630    0.5610 C   0  0  0  0  0  0  0  0  0  0  0  0
    0.7638   -0.4841    1.9551 C   0  0  0  0  0  0  0  0  0  0  0  0
    2.8783   -1.6520    2.0022 C   0  0  0  0  0  0  0  0  0  0  0  0
    2.9210   -1.6309    0.6081 C   0  0  0  0  0  0  0  0  0  0  0  0
   -0.2640    0.1544   -0.2099 C   0  0  0  0  0  0  0  0  0  0  0  0
   -0.9599    1.1016    0.1664 O   0  0  0  0  0  0  0  0  0  0  0  0
   -0.2820    0.0701    2.6308 O   0  0  0  0  0  0  0  0  0  0  0  0
    3.8742   -2.2252    2.7355 O   0  0  0  0  0  0  0  0  0  0  0  0
   -0.4300   -0.4304   -1.4269 O   0  0  0  0  0  0  0  0  0  0  0  0
    4.3720   -2.3981   -0.3397 Br  0  0  0  0  0  0  0  0  0  0  0  0
    1.9137   -1.0152   -1.1999 H   0  0  0  0  0  0  0  0  0  0  0  0
    1.7650   -1.0949    3.7621 H   0  0  0  0  0  0  0  0  0  0  0  0
   -0.1541   -0.0317    3.5868 H   0  0  0  0  0  0  0  0  0  0  0  0
    3.6790   -2.1482    3.6823 H   0  0  0  0  0  0  0  0  0  0  0  0
   -1.1486   -0.0210   -1.9546 H   0  0  0  0  0  0  0  0  0  0  0  0
  1  3  1  0  0  0  0
  1  6  2  0  0  0  0
  2  4  1  0  0  0  0
  2  5  2  0  0  0  0
  3  4  2  0  0  0  0
  3  7  1  0  0  0  0
  4  9  1  0  0  0  0
  5  6  1  0  0  0  0
  5 10  1  0  0  0  0
  6 12  1  0  0  0  0
  7  8  2  0  0  0  0
  7 11  1  0  0  0  0
  1 13  1  0  0  0  0
  2 14  1  0  0  0  0
  9 15  1  0  0  0  0
 10 16  1  0  0  0  0
 11 17  1  0  0  0  0
M  END
$$$$
