5-fluoro-1~{H}-pyrimidine-2,4-dione
  -OEChem-02121815203D

 12 12  0     0  0  0  0  0  0999 V2000
   -0.1503   -1.0048   -1.1466 C   0  0  0  0  0  0  0  0  0  0  0  0
    0.9498   -0.7083   -0.4574 C   0  0  0  0  0  0  0  0  0  0  0  0
    0.9160    0.2934    0.6254 C   0  0  0  0  0  0  0  0  0  0  0  0
   -1.5056    0.5639    0.1136 C   0  0  0  0  0  0  0  0  0  0  0  0
   -1.3461   -0.3956   -0.8796 N   0  0  0  0  0  0  0  0  0  0  0  0
   -0.3373    0.8617    0.8269 N   0  0  0  0  0  0  0  0  0  0  0  0
    1.9217    0.5738    1.2689 O   0  0  0  0  0  0  0  0  0  0  0  0
   -2.5845    1.1089    0.3495 O   0  0  0  0  0  0  0  0  0  0  0  0
    2.1366   -1.2930   -0.7008 F   0  0  0  0  0  0  0  0  0  0  0  0
   -0.1577   -1.7348   -1.9458 H   0  0  0  0  0  0  0  0  0  0  0  0
   -2.1562   -0.6569   -1.4338 H   0  0  0  0  0  0  0  0  0  0  0  0
   -0.4141    1.5589    1.5620 H   0  0  0  0  0  0  0  0  0  0  0  0
  1  2  2  0  0  0  0
  1  5  1  0  0  0  0
  2  3  1  0  0  0  0
  2  9  1  0  0  0  0
  3  6  1  0  0  0  0
  3  7  2  0  0  0  0
  4  5  1  0  0  0  0
  4  6  1  0  0  0  0
  4  8  2  0  0  0  0
  1 10  1  0  0  0  0
  5 11  1  0  0  0  0
  6 12  1  0  0  0  0
M  END
$$$$
