~{N}-(5-sulfamoyl-1,3,4-thiadiazol-2-yl)acetamide
  -OEChem-02121815193D

 19 19  0     0  0  0  0  0  0999 V2000
    0.3607    0.2607   -4.6022 C   0  0  0  0  0  0  0  0  0  0  0  0
    1.4433    0.3635   -6.6961 C   0  0  0  0  0  0  0  0  0  0  0  0
   -0.9738   -0.1775   -2.5161 C   0  0  0  0  0  0  0  0  0  0  0  0
   -1.1503    0.4466   -1.1546 C   0  0  0  0  0  0  0  0  0  0  0  0
   -0.0072   -0.7268   -5.3904 N   0  0  0  0  0  0  0  0  0  0  0  0
    0.6286   -0.6671   -6.6182 N   0  0  0  0  0  0  0  0  0  0  0  0
    2.0249   -0.4392   -9.1704 N   0  0  0  0  0  0  0  0  0  0  0  0
   -0.0632    0.5401   -3.2813 N   0  0  0  0  0  0  0  0  0  0  0  0
   -1.5908   -1.1911   -2.8273 O   0  0  0  0  0  0  0  0  0  0  0  0
    1.9519    2.0720   -8.5923 O   0  0  0  0  0  0  0  0  0  0  0  0
    3.8313    0.6544   -7.6946 O   0  0  0  0  0  0  0  0  0  0  0  0
    1.5036    1.3403   -5.2877 S   0  0  0  0  0  0  0  0  0  0  0  0
    2.4249    0.7982   -8.0587 S   0  0  0  0  0  0  0  0  0  0  0  0
   -1.9596    1.1815   -1.1863 H   0  0  0  0  0  0  0  0  0  0  0  0
   -0.2263    0.9495   -0.8553 H   0  0  0  0  0  0  0  0  0  0  0  0
   -1.3863   -0.3265   -0.4174 H   0  0  0  0  0  0  0  0  0  0  0  0
    1.4469   -0.1914   -9.9827 H   0  0  0  0  0  0  0  0  0  0  0  0
    2.7304   -1.1595   -9.3671 H   0  0  0  0  0  0  0  0  0  0  0  0
    0.3555    1.3638   -2.8542 H   0  0  0  0  0  0  0  0  0  0  0  0
  1  5  2  0  0  0  0
  1  8  1  0  0  0  0
  1 12  1  0  0  0  0
  2  6  2  0  0  0  0
  2 12  1  0  0  0  0
  2 13  1  0  0  0  0
  3  4  1  0  0  0  0
  3  8  1  0  0  0  0
  3  9  2  0  0  0  0
  5  6  1  0  0  0  0
  7 13  1  0  0  0  0
 10 13  2  0  0  0  0
 11 13  2  0  0  0  0
  4 14  1  0  0  0  0
  4 15  1  0  0  0  0
  4 16  1  0  0  0  0
  7 17  1  0  0  0  0
  7 18  1  0  0  0  0
  8 19  1  0  0  0  0
M  END
$$$$
