1-(2-allylphenoxy)-3-(isopropylamino)propan-2-ol
  -OEChem-02121815193D

 41 41  0     1  0  0  0  0  0999 V2000
    2.4920   -5.8604    7.3270 C   0  0  0  0  0  0  0  0  0  0  0  0
    2.5643   -6.6897    6.2078 C   0  0  0  0  0  0  0  0  0  0  0  0
    1.9543   -4.5785    7.2118 C   0  0  0  0  0  0  0  0  0  0  0  0
    2.0990   -6.2369    4.9732 C   0  0  0  0  0  0  0  0  0  0  0  0
    1.4890   -4.1258    5.9772 C   0  0  0  0  0  0  0  0  0  0  0  0
    1.5613   -4.9550    4.8579 C   0  0  0  0  0  0  0  0  0  0  0  0
    1.5691   -1.0631    4.1263 C   0  0  0  0  0  0  0  0  0  0  0  0
    1.8587   -1.7697    5.2247 C   0  0  0  0  0  0  0  0  0  0  0  0
   -2.9604   -4.2104    5.4445 C   0  0  0  0  0  0  0  0  0  0  0  0
   -4.3667   -6.0918    4.5342 C   0  0  0  0  0  0  0  0  0  0  0  0
    0.9171   -2.7508    5.8724 C   0  0  0  0  0  0  0  0  0  0  0  0
   -1.6711   -4.3721    2.6834 C   0  0  0  0  0  0  0  0  0  0  0  0
    0.6042   -5.5232    2.7563 C   0  0  0  0  0  0  0  0  0  0  0  0
   -3.4531   -4.9236    4.1937 C   0  0  0  0  0  0  0  0  0  0  0  0
   -0.4822   -4.9033    1.8826 C   0  0  2  0  0  0  0  0  0  0  0  0
   -2.3035   -5.4250    3.4447 N   0  0  0  0  0  0  0  0  0  0  0  0
    0.0971   -3.8425    1.1221 O   0  0  0  0  0  0  0  0  0  0  0  0
    1.1099   -4.5258    3.6386 O   0  0  0  0  0  0  0  0  0  0  0  0
    2.8547   -6.2123    8.2886 H   0  0  0  0  0  0  0  0  0  0  0  0
    2.9837   -7.6873    6.2978 H   0  0  0  0  0  0  0  0  0  0  0  0
    1.9039   -3.9396    8.0895 H   0  0  0  0  0  0  0  0  0  0  0  0
    2.1580   -6.8875    4.1048 H   0  0  0  0  0  0  0  0  0  0  0  0
    2.2804   -0.3673    3.6954 H   0  0  0  0  0  0  0  0  0  0  0  0
    0.6066   -1.1749    3.6392 H   0  0  0  0  0  0  0  0  0  0  0  0
    2.8358   -1.6387    5.6833 H   0  0  0  0  0  0  0  0  0  0  0  0
   -2.4195   -4.9010    6.0996 H   0  0  0  0  0  0  0  0  0  0  0  0
   -2.2893   -3.3812    5.1940 H   0  0  0  0  0  0  0  0  0  0  0  0
   -3.8007   -3.7939    6.0107 H   0  0  0  0  0  0  0  0  0  0  0  0
   -3.8498   -6.8152    5.1743 H   0  0  0  0  0  0  0  0  0  0  0  0
   -4.6893   -6.6121    3.6264 H   0  0  0  0  0  0  0  0  0  0  0  0
   -5.2611   -5.7572    5.0717 H   0  0  0  0  0  0  0  0  0  0  0  0
   -0.0162   -2.7685    5.2857 H   0  0  0  0  0  0  0  0  0  0  0  0
    0.6140   -2.3932    6.8707 H   0  0  0  0  0  0  0  0  0  0  0  0
   -1.3355   -3.5987    3.3826 H   0  0  0  0  0  0  0  0  0  0  0  0
   -2.4091   -3.9206    2.0123 H   0  0  0  0  0  0  0  0  0  0  0  0
    1.4361   -5.8909    2.1478 H   0  0  0  0  0  0  0  0  0  0  0  0
    0.2090   -6.3382    3.3710 H   0  0  0  0  0  0  0  0  0  0  0  0
   -3.9903   -4.2146    3.5543 H   0  0  0  0  0  0  0  0  0  0  0  0
   -0.8360   -5.6489    1.1607 H   0  0  0  0  0  0  0  0  0  0  0  0
   -2.6210   -6.1663    2.8145 H   0  0  0  0  0  0  0  0  0  0  0  0
   -0.5995   -3.5171    0.5323 H   0  0  0  0  0  0  0  0  0  0  0  0
  1  2  1  0  0  0  0
  1  3  2  0  0  0  0
  2  4  2  0  0  0  0
  3  5  1  0  0  0  0
  4  6  1  0  0  0  0
  5  6  2  0  0  0  0
  5 11  1  0  0  0  0
  6 18  1  0  0  0  0
  7  8  2  0  0  0  0
  8 11  1  0  0  0  0
  9 14  1  0  0  0  0
 10 14  1  0  0  0  0
 12 15  1  0  0  0  0
 12 16  1  0  0  0  0
 13 15  1  0  0  0  0
 13 18  1  0  0  0  0
 14 16  1  0  0  0  0
 15 17  1  0  0  0  0
  1 19  1  0  0  0  0
  2 20  1  0  0  0  0
  3 21  1  0  0  0  0
  4 22  1  0  0  0  0
  7 23  1  0  0  0  0
  7 24  1  0  0  0  0
  8 25  1  0  0  0  0
  9 26  1  0  0  0  0
  9 27  1  0  0  0  0
  9 28  1  0  0  0  0
 10 29  1  0  0  0  0
 10 30  1  0  0  0  0
 10 31  1  0  0  0  0
 11 32  1  0  0  0  0
 11 33  1  0  0  0  0
 12 34  1  0  0  0  0
 12 35  1  0  0  0  0
 13 36  1  0  0  0  0
 13 37  1  0  0  0  0
 14 38  1  0  0  0  0
 15 39  1  0  0  0  0
 16 40  1  0  0  0  0
 17 41  1  0  0  0  0
M  END
$$$$
