(2-butylbenzofuran-3-yl)-[4-[2-(diethylamino)ethoxy]-3,5-diiodo-phenyl]methanone
  -OEChem-02121815193D

 60 62  0     0  0  0  0  0  0999 V2000
   -6.1812    7.7141   -0.5137 C   0  0  0  0  0  0  0  0  0  0  0  0
   -6.7550    7.8250    0.7555 C   0  0  0  0  0  0  0  0  0  0  0  0
   -5.8408    6.4632   -1.0465 C   0  0  0  0  0  0  0  0  0  0  0  0
   -7.0097    6.6943    1.5374 C   0  0  0  0  0  0  0  0  0  0  0  0
   -6.7001    3.9218   -3.5653 C   0  0  0  0  0  0  0  0  0  0  0  0
   -4.2903    4.0068   -3.7153 C   0  0  0  0  0  0  0  0  0  0  0  0
   -6.0883    5.3127   -0.2775 C   0  0  0  0  0  0  0  0  0  0  0  0
   -5.4462    3.7292   -2.9855 C   0  0  0  0  0  0  0  0  0  0  0  0
   -5.8974    3.9161   -0.4481 C   0  0  0  0  0  0  0  0  0  0  0  0
   -6.6609    5.4650    0.9811 C   0  0  0  0  0  0  0  0  0  0  0  0
   -5.6424    4.6696   -5.6047 C   0  0  0  0  0  0  0  0  0  0  0  0
   -6.7982    4.3919   -4.8749 C   0  0  0  0  0  0  0  0  0  0  0  0
   -4.3884    4.4770   -5.0249 C   0  0  0  0  0  0  0  0  0  0  0  0
   -6.3600    3.3182    0.7013 C   0  0  0  0  0  0  0  0  0  0  0  0
   -5.3404    3.2217   -1.5726 C   0  0  0  0  0  0  0  0  0  0  0  0
   -8.9024   -1.0109    0.3587 C   0  0  0  0  0  0  0  0  0  0  0  0
   -5.7735    8.0961  -11.1342 C   0  0  0  0  0  0  0  0  0  0  0  0
   -4.7617   10.4142   -8.7522 C   0  0  0  0  0  0  0  0  0  0  0  0
   -6.4453    1.9192    1.1485 C   0  0  0  0  0  0  0  0  0  0  0  0
   -7.7233   -0.2892    0.9915 C   0  0  0  0  0  0  0  0  0  0  0  0
   -7.6125    1.1505    0.4896 C   0  0  0  0  0  0  0  0  0  0  0  0
   -6.6117    8.6221  -10.0192 C   0  0  0  0  0  0  0  0  0  0  0  0
   -4.6900    8.9318   -8.6109 C   0  0  0  0  0  0  0  0  0  0  0  0
   -5.9094    6.8628   -8.5415 C   0  0  0  0  0  0  0  0  0  0  0  0
   -5.7993    6.5424   -7.0620 C   0  0  0  0  0  0  0  0  0  0  0  0
   -6.0102    8.3286   -8.7260 N   0  0  0  0  0  0  0  0  0  0  0  0
   -4.7295    2.1408   -1.4253 O   0  0  0  0  0  0  0  0  0  0  0  0
   -6.8250    4.2492    1.5746 O   0  0  0  0  0  0  0  0  0  0  0  0
   -5.7384    5.1299   -6.8871 O   0  0  0  0  0  0  0  0  0  0  0  0
   -8.7066    4.6601   -5.6895 I   0  0  0  0  0  0  0  0  0  0  0  0
   -2.6193    4.8750   -6.0685 I   0  0  0  0  0  0  0  0  0  0  0  0
   -5.9955    8.6115   -1.0985 H   0  0  0  0  0  0  0  0  0  0  0  0
   -7.0084    8.8085    1.1435 H   0  0  0  0  0  0  0  0  0  0  0  0
   -5.3951    6.3948   -2.0344 H   0  0  0  0  0  0  0  0  0  0  0  0
   -7.4548    6.7723    2.5220 H   0  0  0  0  0  0  0  0  0  0  0  0
   -7.5938    3.7013   -2.9852 H   0  0  0  0  0  0  0  0  0  0  0  0
   -3.3184    3.8521   -3.2513 H   0  0  0  0  0  0  0  0  0  0  0  0
   -9.8412   -0.4894    0.5706 H   0  0  0  0  0  0  0  0  0  0  0  0
   -8.9846   -2.0348    0.7371 H   0  0  0  0  0  0  0  0  0  0  0  0
   -8.7786   -1.0591   -0.7279 H   0  0  0  0  0  0  0  0  0  0  0  0
   -4.7771    8.5510  -11.1222 H   0  0  0  0  0  0  0  0  0  0  0  0
   -5.6741    7.0072  -11.0675 H   0  0  0  0  0  0  0  0  0  0  0  0
   -6.2425    8.3351  -12.0962 H   0  0  0  0  0  0  0  0  0  0  0  0
   -5.1690   10.6943   -9.7297 H   0  0  0  0  0  0  0  0  0  0  0  0
   -5.3832   10.8518   -7.9633 H   0  0  0  0  0  0  0  0  0  0  0  0
   -3.7564   10.8443   -8.6692 H   0  0  0  0  0  0  0  0  0  0  0  0
   -5.5053    1.3663    0.9383 H   0  0  0  0  0  0  0  0  0  0  0  0
   -6.5650    1.8503    2.2505 H   0  0  0  0  0  0  0  0  0  0  0  0
   -6.8016   -0.8359    0.7608 H   0  0  0  0  0  0  0  0  0  0  0  0
   -7.8409   -0.2957    2.0814 H   0  0  0  0  0  0  0  0  0  0  0  0
   -7.4747    1.1496   -0.5992 H   0  0  0  0  0  0  0  0  0  0  0  0
   -8.5521    1.6817    0.6880 H   0  0  0  0  0  0  0  0  0  0  0  0
   -7.6051    8.1638  -10.0371 H   0  0  0  0  0  0  0  0  0  0  0  0
   -6.7230    9.7077  -10.0963 H   0  0  0  0  0  0  0  0  0  0  0  0
   -4.2825    8.6592   -7.6327 H   0  0  0  0  0  0  0  0  0  0  0  0
   -4.0563    8.4980   -9.3900 H   0  0  0  0  0  0  0  0  0  0  0  0
   -5.0319    6.5075   -9.0909 H   0  0  0  0  0  0  0  0  0  0  0  0
   -6.8075    6.4031   -8.9649 H   0  0  0  0  0  0  0  0  0  0  0  0
   -6.6831    6.9106   -6.5320 H   0  0  0  0  0  0  0  0  0  0  0  0
   -4.9044    6.9909   -6.6185 H   0  0  0  0  0  0  0  0  0  0  0  0
  1  2  1  0  0  0  0
  1  3  2  0  0  0  0
  2  4  2  0  0  0  0
  3  7  1  0  0  0  0
  4 10  1  0  0  0  0
  5  8  1  0  0  0  0
  5 12  2  0  0  0  0
  6  8  2  0  0  0  0
  6 13  1  0  0  0  0
  7  9  1  0  0  0  0
  7 10  2  0  0  0  0
  8 15  1  0  0  0  0
  9 14  2  0  0  0  0
  9 15  1  0  0  0  0
 10 28  1  0  0  0  0
 11 12  1  0  0  0  0
 11 13  2  0  0  0  0
 11 29  1  0  0  0  0
 12 30  1  0  0  0  0
 13 31  1  0  0  0  0
 14 19  1  0  0  0  0
 14 28  1  0  0  0  0
 15 27  2  0  0  0  0
 16 20  1  0  0  0  0
 17 22  1  0  0  0  0
 18 23  1  0  0  0  0
 19 21  1  0  0  0  0
 20 21  1  0  0  0  0
 22 26  1  0  0  0  0
 23 26  1  0  0  0  0
 24 25  1  0  0  0  0
 24 26  1  0  0  0  0
 25 29  1  0  0  0  0
  1 32  1  0  0  0  0
  2 33  1  0  0  0  0
  3 34  1  0  0  0  0
  4 35  1  0  0  0  0
  5 36  1  0  0  0  0
  6 37  1  0  0  0  0
 16 38  1  0  0  0  0
 16 39  1  0  0  0  0
 16 40  1  0  0  0  0
 17 41  1  0  0  0  0
 17 42  1  0  0  0  0
 17 43  1  0  0  0  0
 18 44  1  0  0  0  0
 18 45  1  0  0  0  0
 18 46  1  0  0  0  0
 19 47  1  0  0  0  0
 19 48  1  0  0  0  0
 20 49  1  0  0  0  0
 20 50  1  0  0  0  0
 21 51  1  0  0  0  0
 21 52  1  0  0  0  0
 22 53  1  0  0  0  0
 22 54  1  0  0  0  0
 23 55  1  0  0  0  0
 23 56  1  0  0  0  0
 24 57  1  0  0  0  0
 24 58  1  0  0  0  0
 25 59  1  0  0  0  0
 25 60  1  0  0  0  0
M  END
$$$$
