(8-methyl-8-azabicyclo[3.2.1]octan-3-yl) 3-hydroxy-2-phenyl-propanoate
  -OEChem-02121815193D

 44 46  0     1  0  0  0  0  0999 V2000
   -4.8568   -0.3159    7.2217 C   0  0  0  0  0  0  0  0  0  0  0  0
   -4.4714   -1.3951    6.4265 C   0  0  0  0  0  0  0  0  0  0  0  0
   -5.1094    0.9256    6.6379 C   0  0  0  0  0  0  0  0  0  0  0  0
   -4.3384   -1.2328    5.0475 C   0  0  0  0  0  0  0  0  0  0  0  0
   -4.9763    1.0878    5.2590 C   0  0  0  0  0  0  0  0  0  0  0  0
   -4.5909    0.0086    4.4637 C   0  0  0  0  0  0  0  0  0  0  0  0
   -3.0266    0.6100    2.5934 C   0  0  0  0  0  0  0  0  0  0  0  0
    0.9657    1.4372   -0.6435 C   0  0  0  0  0  0  0  0  0  0  0  0
    1.5812    0.7589    0.5830 C   0  0  0  0  0  0  0  0  0  0  0  0
   -1.3919    0.4734   -0.6236 C   0  0  0  0  0  0  0  0  0  0  0  0
   -0.3694   -0.6530    1.4124 C   0  0  0  0  0  0  0  0  0  0  0  0
    0.0208    0.3849   -1.2340 C   0  0  2  0  0  0  0  0  0  0  0  0
    0.9478   -0.6365    0.6121 C   0  0  1  0  0  0  0  0  0  0  0  0
   -1.3761    0.3923    0.9093 C   0  0  0  0  0  0  0  0  0  0  0  0
    1.7220   -1.3330   -1.6003 C   0  0  0  0  0  0  0  0  0  0  0  0
   -5.4649    1.1827    2.3896 C   0  0  0  0  0  0  0  0  0  0  0  0
   -4.4459    0.1863    2.9606 C   0  0  2  0  0  0  0  0  0  0  0  0
    0.5830   -0.9053   -0.7918 N   0  0  0  0  0  0  0  0  0  0  0  0
   -2.3002    1.3135    3.2838 O   0  0  0  0  0  0  0  0  0  0  0  0
   -5.6033    0.9727    0.9877 O   0  0  0  0  0  0  0  0  0  0  0  0
   -2.6831    0.0810    1.3765 O   0  0  0  0  0  0  0  0  0  0  0  0
   -4.9617   -0.4427    8.2953 H   0  0  0  0  0  0  0  0  0  0  0  0
   -4.2758   -2.3621    6.8807 H   0  0  0  0  0  0  0  0  0  0  0  0
   -5.4105    1.7657    7.2566 H   0  0  0  0  0  0  0  0  0  0  0  0
   -4.0375   -2.0792    4.4357 H   0  0  0  0  0  0  0  0  0  0  0  0
   -5.1750    2.0587    4.8129 H   0  0  0  0  0  0  0  0  0  0  0  0
    0.4523    2.3678   -0.3804 H   0  0  0  0  0  0  0  0  0  0  0  0
    1.7586    1.6891   -1.3577 H   0  0  0  0  0  0  0  0  0  0  0  0
    2.6677    0.6881    0.4536 H   0  0  0  0  0  0  0  0  0  0  0  0
    1.3956    1.3280    1.4998 H   0  0  0  0  0  0  0  0  0  0  0  0
   -1.8785    1.4082   -0.9290 H   0  0  0  0  0  0  0  0  0  0  0  0
   -2.0203   -0.3310   -1.0301 H   0  0  0  0  0  0  0  0  0  0  0  0
   -0.8208   -1.6534    1.3618 H   0  0  0  0  0  0  0  0  0  0  0  0
   -0.1681   -0.4749    2.4762 H   0  0  0  0  0  0  0  0  0  0  0  0
   -0.0561    0.4646   -2.3242 H   0  0  0  0  0  0  0  0  0  0  0  0
    1.6268   -1.3896    1.0274 H   0  0  0  0  0  0  0  0  0  0  0  0
   -1.1156    1.3764    1.3164 H   0  0  0  0  0  0  0  0  0  0  0  0
    2.1030   -2.2905   -1.2358 H   0  0  0  0  0  0  0  0  0  0  0  0
    2.5237   -0.5915   -1.5461 H   0  0  0  0  0  0  0  0  0  0  0  0
    1.4216   -1.4486   -2.6452 H   0  0  0  0  0  0  0  0  0  0  0  0
   -5.1538    2.2207    2.5510 H   0  0  0  0  0  0  0  0  0  0  0  0
   -6.4546    1.0371    2.8363 H   0  0  0  0  0  0  0  0  0  0  0  0
   -4.6090   -0.7932    2.4892 H   0  0  0  0  0  0  0  0  0  0  0  0
   -6.2529    1.6207    0.6732 H   0  0  0  0  0  0  0  0  0  0  0  0
  1  2  1  0  0  0  0
  1  3  2  0  0  0  0
  2  4  2  0  0  0  0
  3  5  1  0  0  0  0
  4  6  1  0  0  0  0
  5  6  2  0  0  0  0
  6 17  1  0  0  0  0
  7 17  1  0  0  0  0
  7 19  2  0  0  0  0
  7 21  1  0  0  0  0
  8  9  1  0  0  0  0
  8 12  1  0  0  0  0
  9 13  1  0  0  0  0
 10 12  1  0  0  0  0
 10 14  1  0  0  0  0
 11 13  1  0  0  0  0
 11 14  1  0  0  0  0
 12 18  1  0  0  0  0
 13 18  1  0  0  0  0
 14 21  1  0  0  0  0
 15 18  1  0  0  0  0
 16 17  1  0  0  0  0
 16 20  1  0  0  0  0
  1 22  1  0  0  0  0
  2 23  1  0  0  0  0
  3 24  1  0  0  0  0
  4 25  1  0  0  0  0
  5 26  1  0  0  0  0
  8 27  1  0  0  0  0
  8 28  1  0  0  0  0
  9 29  1  0  0  0  0
  9 30  1  0  0  0  0
 10 31  1  0  0  0  0
 10 32  1  0  0  0  0
 11 33  1  0  0  0  0
 11 34  1  0  0  0  0
 12 35  1  0  0  0  0
 13 36  1  0  0  0  0
 14 37  1  0  0  0  0
 15 38  1  0  0  0  0
 15 39  1  0  0  0  0
 15 40  1  0  0  0  0
 16 41  1  0  0  0  0
 16 42  1  0  0  0  0
 17 43  1  0  0  0  0
 20 44  1  0  0  0  0
M  END
$$$$
