6-(3-methyl-5-nitro-imidazol-4-yl)sulfanyl-7~{H}-purine
  -OEChem-02121815193D

 26 28  0     0  0  0  0  0  0999 V2000
    7.0410    2.2263   -0.1341 C   0  0  0  0  0  0  0  0  0  0  0  0
    6.2489   -0.1520    3.3954 C   0  0  0  0  0  0  0  0  0  0  0  0
    2.7825    4.9071   -1.9653 C   0  0  0  0  0  0  0  0  0  0  0  0
    5.6465    1.3610    1.9091 C   0  0  0  0  0  0  0  0  0  0  0  0
    6.9193    0.8689    1.6536 C   0  0  0  0  0  0  0  0  0  0  0  0
    3.6023    5.4734   -0.0845 C   0  0  0  0  0  0  0  0  0  0  0  0
    5.0819    2.3205    1.0920 C   0  0  0  0  0  0  0  0  0  0  0  0
    3.2953    4.1386    0.0354 C   0  0  0  0  0  0  0  0  0  0  0  0
    2.2817    2.4951   -1.5944 C   0  0  0  0  0  0  0  0  0  0  0  0
    7.6710    1.2906    0.6083 N   0  0  0  0  0  0  0  0  0  0  0  0
    5.8088    2.7607    0.0404 N   0  0  0  0  0  0  0  0  0  0  0  0
    7.2821   -0.0708    2.5845 N   0  0  0  0  0  0  0  0  0  0  0  0
    3.2804    5.9459   -1.3322 N   0  0  0  0  0  0  0  0  0  0  0  0
    5.2360    0.6941    3.0282 N   0  0  0  0  0  0  0  0  0  0  0  0
    2.7706    3.7900   -1.1771 N   0  0  0  0  0  0  0  0  0  0  0  0
    4.1674    6.3444    0.8579 N   0  0  0  0  0  0  0  0  0  0  0  0
    4.4655    5.9141    2.0079 O   0  0  0  0  0  0  0  0  0  0  0  0
    4.3740    7.5521    0.5492 O   0  0  0  0  0  0  0  0  0  0  0  0
    3.4701    2.9707    1.3818 S   0  0  0  0  0  0  0  0  0  0  0  0
    7.5968    2.6018   -0.9867 H   0  0  0  0  0  0  0  0  0  0  0  0
    6.1691   -0.7961    4.2596 H   0  0  0  0  0  0  0  0  0  0  0  0
    2.4183    4.9041   -2.9837 H   0  0  0  0  0  0  0  0  0  0  0  0
    3.1184    1.9434   -2.0311 H   0  0  0  0  0  0  0  0  0  0  0  0
    1.8817    1.9605   -0.7284 H   0  0  0  0  0  0  0  0  0  0  0  0
    1.4850    2.6299   -2.3313 H   0  0  0  0  0  0  0  0  0  0  0  0
    4.3489    0.8033    3.5015 H   0  0  0  0  0  0  0  0  0  0  0  0
  1 10  2  0  0  0  0
  1 11  1  0  0  0  0
  2 12  2  0  0  0  0
  2 14  1  0  0  0  0
  3 13  2  0  0  0  0
  3 15  1  0  0  0  0
  4  5  2  0  0  0  0
  4  7  1  0  0  0  0
  4 14  1  0  0  0  0
  5 10  1  0  0  0  0
  5 12  1  0  0  0  0
  6  8  2  0  0  0  0
  6 13  1  0  0  0  0
  6 16  1  0  0  0  0
  7 11  2  0  0  0  0
  7 19  1  0  0  0  0
  8 15  1  0  0  0  0
  8 19  1  0  0  0  0
  9 15  1  0  0  0  0
 16 17  2  0  0  0  0
 16 18  2  0  0  0  0
  1 20  1  0  0  0  0
  2 21  1  0  0  0  0
  3 22  1  0  0  0  0
  9 23  1  0  0  0  0
  9 24  1  0  0  0  0
  9 25  1  0  0  0  0
 14 26  1  0  0  0  0
M  END
$$$$
