1-(5-bromo-1~{H}-indol-3-yl)-~{N},~{N}-dimethyl-methanamine
  -OEChem-02121815193D

 27 28  0     0  0  0  0  0  0999 V2000
   -1.8022   -0.7245    0.9247 C   0  0  0  0  0  0  0  0  0  0  0  0
   -0.7671    0.1975    0.7446 C   0  0  0  0  0  0  0  0  0  0  0  0
   -1.6773    1.6439    2.4698 C   0  0  0  0  0  0  0  0  0  0  0  0
   -4.5471   -0.4724    3.2738 C   0  0  0  0  0  0  0  0  0  0  0  0
   -2.7304    0.7292    2.6692 C   0  0  0  0  0  0  0  0  0  0  0  0
   -3.8586    0.6897    3.5356 C   0  0  0  0  0  0  0  0  0  0  0  0
   -2.7685   -0.4315    1.8936 C   0  0  0  0  0  0  0  0  0  0  0  0
   -0.7036    1.3640    1.5041 C   0  0  0  0  0  0  0  0  0  0  0  0
   -3.8377    0.5882    6.6277 C   0  0  0  0  0  0  0  0  0  0  0  0
   -3.4220    2.9463    6.4309 C   0  0  0  0  0  0  0  0  0  0  0  0
   -4.2326    1.7072    4.5387 C   0  0  0  0  0  0  0  0  0  0  0  0
   -3.8818   -1.1421    2.2822 N   0  0  0  0  0  0  0  0  0  0  0  0
   -3.4039    1.6601    5.7233 N   0  0  0  0  0  0  0  0  0  0  0  0
    0.7172    2.5839    1.2322 Br  0  0  0  0  0  0  0  0  0  0  0  0
   -1.8510   -1.6320    0.3322 H   0  0  0  0  0  0  0  0  0  0  0  0
   -0.0078   -0.0159   -0.0048 H   0  0  0  0  0  0  0  0  0  0  0  0
   -1.6292    2.5534    3.0629 H   0  0  0  0  0  0  0  0  0  0  0  0
   -5.4503   -0.8837    3.7026 H   0  0  0  0  0  0  0  0  0  0  0  0
   -3.8259   -0.3720    6.1053 H   0  0  0  0  0  0  0  0  0  0  0  0
   -4.8529    0.7823    6.9844 H   0  0  0  0  0  0  0  0  0  0  0  0
   -3.1688    0.5276    7.4904 H   0  0  0  0  0  0  0  0  0  0  0  0
   -3.0996    3.7480    5.7614 H   0  0  0  0  0  0  0  0  0  0  0  0
   -2.7480    2.9139    7.2912 H   0  0  0  0  0  0  0  0  0  0  0  0
   -4.4322    3.1685    6.7852 H   0  0  0  0  0  0  0  0  0  0  0  0
   -4.1527    2.7316    4.1339 H   0  0  0  0  0  0  0  0  0  0  0  0
   -5.2770    1.5943    4.8784 H   0  0  0  0  0  0  0  0  0  0  0  0
   -4.1655   -2.0296    1.8908 H   0  0  0  0  0  0  0  0  0  0  0  0
  1  2  2  0  0  0  0
  1  7  1  0  0  0  0
  2  8  1  0  0  0  0
  3  5  1  0  0  0  0
  3  8  2  0  0  0  0
  4  6  2  0  0  0  0
  4 12  1  0  0  0  0
  5  6  1  0  0  0  0
  5  7  2  0  0  0  0
  6 11  1  0  0  0  0
  7 12  1  0  0  0  0
  8 14  1  0  0  0  0
  9 13  1  0  0  0  0
 10 13  1  0  0  0  0
 11 13  1  0  0  0  0
  1 15  1  0  0  0  0
  2 16  1  0  0  0  0
  3 17  1  0  0  0  0
  4 18  1  0  0  0  0
  9 19  1  0  0  0  0
  9 20  1  0  0  0  0
  9 21  1  0  0  0  0
 10 22  1  0  0  0  0
 10 23  1  0  0  0  0
 10 24  1  0  0  0  0
 11 25  1  0  0  0  0
 11 26  1  0  0  0  0
 12 27  1  0  0  0  0
M  END
$$$$
