2-(6-chloro-9~{H}-carbazol-2-yl)propanoic acid
  -OEChem-02121815193D

 31 33  0     1  0  0  0  0  0999 V2000
    1.0741   -1.0708   -1.5293 C   0  0  0  0  0  0  0  0  0  0  0  0
    0.6059   -0.8735   -0.2253 C   0  0  0  0  0  0  0  0  0  0  0  0
    3.8573   -4.6581   -3.5838 C   0  0  0  0  0  0  0  0  0  0  0  0
    3.9154   -4.1952   -4.9010 C   0  0  0  0  0  0  0  0  0  0  0  0
    2.5601   -2.2620   -4.3383 C   0  0  0  0  0  0  0  0  0  0  0  0
    1.6843   -2.9160    0.5240 C   0  0  0  0  0  0  0  0  0  0  0  0
    1.8599   -2.2064   -1.8176 C   0  0  0  0  0  0  0  0  0  0  0  0
    2.4865   -2.7088   -3.0022 C   0  0  0  0  0  0  0  0  0  0  0  0
    0.9077   -1.7839    0.7846 C   0  0  0  0  0  0  0  0  0  0  0  0
    3.1363   -3.8945   -2.6586 C   0  0  0  0  0  0  0  0  0  0  0  0
    2.1451   -3.0998   -0.7848 C   0  0  0  0  0  0  0  0  0  0  0  0
    3.2772   -3.0150   -5.2750 C   0  0  0  0  0  0  0  0  0  0  0  0
   -0.5633   -2.6491    2.6332 C   0  0  0  0  0  0  0  0  0  0  0  0
    1.5099   -1.3740    3.2182 C   0  0  0  0  0  0  0  0  0  0  0  0
    0.3956   -1.5488    2.1674 C   0  0  1  0  0  0  0  0  0  0  0  0
    2.9149   -4.1064   -1.3183 N   0  0  0  0  0  0  0  0  0  0  0  0
   -0.8651   -3.6314    1.9678 O   0  0  0  0  0  0  0  0  0  0  0  0
   -1.0664   -2.4256    3.8761 O   0  0  0  0  0  0  0  0  0  0  0  0
    3.3690   -2.4733   -6.9078 Cl  0  0  0  0  0  0  0  0  0  0  0  0
    0.8295   -0.3524   -2.3067 H   0  0  0  0  0  0  0  0  0  0  0  0
    0.0005    0.0036   -0.0094 H   0  0  0  0  0  0  0  0  0  0  0  0
    4.3544   -5.5775   -3.2927 H   0  0  0  0  0  0  0  0  0  0  0  0
    4.4714   -4.7764   -5.6335 H   0  0  0  0  0  0  0  0  0  0  0  0
    2.0614   -1.3417   -4.6313 H   0  0  0  0  0  0  0  0  0  0  0  0
    1.9239   -3.6301    1.3057 H   0  0  0  0  0  0  0  0  0  0  0  0
    2.1476   -2.2625    3.2827 H   0  0  0  0  0  0  0  0  0  0  0  0
    2.1433   -0.5155    2.9689 H   0  0  0  0  0  0  0  0  0  0  0  0
    1.1007   -1.2060    4.2205 H   0  0  0  0  0  0  0  0  0  0  0  0
   -0.1919   -0.6106    2.1730 H   0  0  0  0  0  0  0  0  0  0  0  0
    3.2689   -4.8961   -0.7964 H   0  0  0  0  0  0  0  0  0  0  0  0
   -1.6902   -3.1069    4.2057 H   0  0  0  0  0  0  0  0  0  0  0  0
  1  2  2  0  0  0  0
  1  7  1  0  0  0  0
  2  9  1  0  0  0  0
  3  4  2  0  0  0  0
  3 10  1  0  0  0  0
  4 12  1  0  0  0  0
  5  8  1  0  0  0  0
  5 12  2  0  0  0  0
  6  9  2  0  0  0  0
  6 11  1  0  0  0  0
  7  8  1  0  0  0  0
  7 11  2  0  0  0  0
  8 10  2  0  0  0  0
  9 15  1  0  0  0  0
 10 16  1  0  0  0  0
 11 16  1  0  0  0  0
 12 19  1  0  0  0  0
 13 15  1  0  0  0  0
 13 17  2  0  0  0  0
 13 18  1  0  0  0  0
 14 15  1  0  0  0  0
  1 20  1  0  0  0  0
  2 21  1  0  0  0  0
  3 22  1  0  0  0  0
  4 23  1  0  0  0  0
  5 24  1  0  0  0  0
  6 25  1  0  0  0  0
 14 26  1  0  0  0  0
 14 27  1  0  0  0  0
 14 28  1  0  0  0  0
 15 29  1  0  0  0  0
 16 30  1  0  0  0  0
 18 31  1  0  0  0  0
M  END
$$$$
