3-(acetoxymethyl)-8-oxo-7-[[2-(2-thienyl)acetyl]amino]-5-thia-1-azabicyclo[4.2.0
  -OEChem-02121815203D

 42 44  0     1  0  0  0  0  0999 V2000
    1.8127   -4.9611    5.9113 C   0  0  0  0  0  0  0  0  0  0  0  0
    1.4062   -3.7926    5.2044 C   0  0  0  0  0  0  0  0  0  0  0  0
    0.8865   -5.3421    6.8571 C   0  0  0  0  0  0  0  0  0  0  0  0
    0.1846   -3.3252    5.6369 C   0  0  0  0  0  0  0  0  0  0  0  0
    0.5441    0.7935   -0.8009 C   0  0  0  0  0  0  0  0  0  0  0  0
    1.1081   -0.0485   -1.6994 C   0  0  0  0  0  0  0  0  0  0  0  0
   -0.9728    0.7793    1.2345 C   0  0  0  0  0  0  0  0  0  0  0  0
    0.5728    2.2512   -0.9919 C   0  0  0  0  0  0  0  0  0  0  0  0
   -0.9066   -2.1813    3.6675 C   0  0  0  0  0  0  0  0  0  0  0  0
    4.1009    0.1431   -3.7961 C   0  0  0  0  0  0  0  0  0  0  0  0
    0.9622   -1.5671   -1.6347 C   0  0  0  0  0  0  0  0  0  0  0  0
   -1.2112   -0.6867    1.7071 C   0  0  1  0  0  0  0  0  0  0  0  0
   -0.0388   -1.0430    0.7585 C   0  0  2  0  0  0  0  0  0  0  0  0
    5.4264   -0.5146   -3.5581 C   0  0  0  0  0  0  0  0  0  0  0  0
   -0.5863   -2.1273    5.1490 C   0  0  0  0  0  0  0  0  0  0  0  0
    1.9350    0.3903   -2.8842 C   0  0  0  0  0  0  0  0  0  0  0  0
   -0.1252    0.3272    0.2846 N   0  0  0  0  0  0  0  0  0  0  0  0
   -0.9312   -0.9144    3.1180 N   0  0  0  0  0  0  0  0  0  0  0  0
   -1.4078    1.8692    1.5248 O   0  0  0  0  0  0  0  0  0  0  0  0
    0.0849    2.8265   -1.9438 O   0  0  0  0  0  0  0  0  0  0  0  0
   -1.1100   -3.2268    3.0555 O   0  0  0  0  0  0  0  0  0  0  0  0
    3.8517    0.8531   -4.7609 O   0  0  0  0  0  0  0  0  0  0  0  0
    1.2170    2.8251    0.0433 O   0  0  0  0  0  0  0  0  0  0  0  0
    3.2281   -0.1678   -2.7844 O   0  0  0  0  0  0  0  0  0  0  0  0
   -0.4667   -4.2933    6.8902 S   0  0  0  0  0  0  0  0  0  0  0  0
   -0.4351   -2.1510   -0.6164 S   0  0  0  0  0  0  0  0  0  0  0  0
    2.7368   -5.4959    5.7350 H   0  0  0  0  0  0  0  0  0  0  0  0
    1.9838   -3.3233    4.4181 H   0  0  0  0  0  0  0  0  0  0  0  0
    0.9399   -6.1859    7.5304 H   0  0  0  0  0  0  0  0  0  0  0  0
    0.7940   -1.9636   -2.6418 H   0  0  0  0  0  0  0  0  0  0  0  0
    1.8898   -2.0066   -1.2521 H   0  0  0  0  0  0  0  0  0  0  0  0
   -2.2009   -1.0641    1.4274 H   0  0  0  0  0  0  0  0  0  0  0  0
    0.9139   -1.2551    1.2594 H   0  0  0  0  0  0  0  0  0  0  0  0
    6.0694    0.1478   -2.9734 H   0  0  0  0  0  0  0  0  0  0  0  0
    5.8949   -0.7614   -4.5142 H   0  0  0  0  0  0  0  0  0  0  0  0
    5.2760   -1.4405   -2.9954 H   0  0  0  0  0  0  0  0  0  0  0  0
   -1.5251   -2.0405    5.7108 H   0  0  0  0  0  0  0  0  0  0  0  0
   -0.0158   -1.2119    5.3509 H   0  0  0  0  0  0  0  0  0  0  0  0
    2.0031    1.4735   -2.8989 H   0  0  0  0  0  0  0  0  0  0  0  0
    1.4605    0.0378   -3.7945 H   0  0  0  0  0  0  0  0  0  0  0  0
   -0.7491   -0.1197    3.7144 H   0  0  0  0  0  0  0  0  0  0  0  0
    1.2567    3.8009   -0.0492 H   0  0  0  0  0  0  0  0  0  0  0  0
  1  2  1  0  0  0  0
  1  3  2  0  0  0  0
  2  4  2  0  0  0  0
  3 25  1  0  0  0  0
  4 15  1  0  0  0  0
  4 25  1  0  0  0  0
  5  6  2  0  0  0  0
  5  8  1  0  0  0  0
  5 17  1  0  0  0  0
  6 11  1  0  0  0  0
  6 16  1  0  0  0  0
  7 12  1  0  0  0  0
  7 17  1  0  0  0  0
  7 19  2  0  0  0  0
  8 20  2  0  0  0  0
  8 23  1  0  0  0  0
  9 15  1  0  0  0  0
  9 18  1  0  0  0  0
  9 21  2  0  0  0  0
 10 14  1  0  0  0  0
 10 22  2  0  0  0  0
 10 24  1  0  0  0  0
 11 26  1  0  0  0  0
 12 13  1  0  0  0  0
 12 18  1  0  0  0  0
 13 17  1  0  0  0  0
 13 26  1  0  0  0  0
 16 24  1  0  0  0  0
  1 27  1  0  0  0  0
  2 28  1  0  0  0  0
  3 29  1  0  0  0  0
 11 30  1  0  0  0  0
 11 31  1  0  0  0  0
 12 32  1  0  0  0  0
 13 33  1  0  0  0  0
 14 34  1  0  0  0  0
 14 35  1  0  0  0  0
 14 36  1  0  0  0  0
 15 37  1  0  0  0  0
 15 38  1  0  0  0  0
 16 39  1  0  0  0  0
 16 40  1  0  0  0  0
 18 41  1  0  0  0  0
 23 42  1  0  0  0  0
M  END
$$$$
