3-(2-chlorophenothiazin-10-yl)-~{N},~{N}-dimethyl-propan-1-amine
  -OEChem-02121815203D

 40 42  0     0  0  0  0  0  0999 V2000
    3.9073   -5.3871    4.8640 C   0  0  0  0  0  0  0  0  0  0  0  0
    4.8453   -5.8427    3.9502 C   0  0  0  0  0  0  0  0  0  0  0  0
    3.1415   -4.2547    4.5731 C   0  0  0  0  0  0  0  0  0  0  0  0
    5.0111   -5.1688    2.7448 C   0  0  0  0  0  0  0  0  0  0  0  0
    2.8347   -1.7486   -0.6125 C   0  0  0  0  0  0  0  0  0  0  0  0
    1.7278   -0.9433   -0.8590 C   0  0  0  0  0  0  0  0  0  0  0  0
    1.1308   -1.0961    1.4719 C   0  0  0  0  0  0  0  0  0  0  0  0
    3.2926   -3.5399    3.3647 C   0  0  0  0  0  0  0  0  0  0  0  0
    2.2518   -1.9053    1.7596 C   0  0  0  0  0  0  0  0  0  0  0  0
    4.2398   -4.0319    2.4449 C   0  0  0  0  0  0  0  0  0  0  0  0
    3.0959   -2.2352    0.6808 C   0  0  0  0  0  0  0  0  0  0  0  0
    0.8731   -0.6194    0.1837 C   0  0  0  0  0  0  0  0  0  0  0  0
   -0.6680    0.4540    6.7652 C   0  0  0  0  0  0  0  0  0  0  0  0
   -1.5694   -0.0199    4.5891 C   0  0  0  0  0  0  0  0  0  0  0  0
    0.4876   -2.3219    4.5234 C   0  0  0  0  0  0  0  0  0  0  0  0
    1.8485   -1.7166    4.1859 C   0  0  0  0  0  0  0  0  0  0  0  0
   -0.2079   -1.6535    5.7073 C   0  0  0  0  0  0  0  0  0  0  0  0
    2.5066   -2.3988    3.0641 N   0  0  0  0  0  0  0  0  0  0  0  0
   -0.4327   -0.2499    5.4946 N   0  0  0  0  0  0  0  0  0  0  0  0
    4.5550   -3.2377    0.8814 S   0  0  0  0  0  0  0  0  0  0  0  0
   -0.5103    0.3619   -0.1117 Cl  0  0  0  0  0  0  0  0  0  0  0  0
    3.7623   -5.9122    5.8035 H   0  0  0  0  0  0  0  0  0  0  0  0
    5.4434   -6.7215    4.1716 H   0  0  0  0  0  0  0  0  0  0  0  0
    2.4022   -3.9589    5.3140 H   0  0  0  0  0  0  0  0  0  0  0  0
    5.7510   -5.5427    2.0398 H   0  0  0  0  0  0  0  0  0  0  0  0
    3.4930   -1.9939   -1.4437 H   0  0  0  0  0  0  0  0  0  0  0  0
    1.5454   -0.5825   -1.8676 H   0  0  0  0  0  0  0  0  0  0  0  0
    0.4196   -0.8432    2.2562 H   0  0  0  0  0  0  0  0  0  0  0  0
    0.1709    0.2901    7.4465 H   0  0  0  0  0  0  0  0  0  0  0  0
   -1.5825    0.0853    7.2378 H   0  0  0  0  0  0  0  0  0  0  0  0
   -0.7733    1.5278    6.5885 H   0  0  0  0  0  0  0  0  0  0  0  0
   -1.4054   -0.5387    3.6410 H   0  0  0  0  0  0  0  0  0  0  0  0
   -1.6838    1.0491    4.3901 H   0  0  0  0  0  0  0  0  0  0  0  0
   -2.4930   -0.3934    5.0394 H   0  0  0  0  0  0  0  0  0  0  0  0
    0.6231   -3.3891    4.7380 H   0  0  0  0  0  0  0  0  0  0  0  0
   -0.1681   -2.2505    3.6469 H   0  0  0  0  0  0  0  0  0  0  0  0
    1.7633   -0.6563    3.9292 H   0  0  0  0  0  0  0  0  0  0  0  0
    2.5186   -1.8030    5.0472 H   0  0  0  0  0  0  0  0  0  0  0  0
    0.4139   -1.7432    6.6037 H   0  0  0  0  0  0  0  0  0  0  0  0
   -1.1754   -2.1189    5.9191 H   0  0  0  0  0  0  0  0  0  0  0  0
  1  2  1  0  0  0  0
  1  3  2  0  0  0  0
  2  4  2  0  0  0  0
  3  8  1  0  0  0  0
  4 10  1  0  0  0  0
  5  6  2  0  0  0  0
  5 11  1  0  0  0  0
  6 12  1  0  0  0  0
  7  9  1  0  0  0  0
  7 12  2  0  0  0  0
  8 10  2  0  0  0  0
  8 18  1  0  0  0  0
  9 11  2  0  0  0  0
  9 18  1  0  0  0  0
 10 20  1  0  0  0  0
 11 20  1  0  0  0  0
 12 21  1  0  0  0  0
 13 19  1  0  0  0  0
 14 19  1  0  0  0  0
 15 16  1  0  0  0  0
 15 17  1  0  0  0  0
 16 18  1  0  0  0  0
 17 19  1  0  0  0  0
  1 22  1  0  0  0  0
  2 23  1  0  0  0  0
  3 24  1  0  0  0  0
  4 25  1  0  0  0  0
  5 26  1  0  0  0  0
  6 27  1  0  0  0  0
  7 28  1  0  0  0  0
 13 29  1  0  0  0  0
 13 30  1  0  0  0  0
 13 31  1  0  0  0  0
 14 32  1  0  0  0  0
 14 33  1  0  0  0  0
 14 34  1  0  0  0  0
 15 35  1  0  0  0  0
 15 36  1  0  0  0  0
 16 37  1  0  0  0  0
 16 38  1  0  0  0  0
 17 39  1  0  0  0  0
 17 40  1  0  0  0  0
M  END
$$$$
