3-(4-chlorophenyl)-~{N},~{N}-dimethyl-3-(2-pyridyl)propan-1-amine
  -OEChem-02121815203D

 38 39  0     1  0  0  0  0  0999 V2000
    1.7689    4.0880   -0.5575 C   0  0  0  0  0  0  0  0  0  0  0  0
    1.5381    4.2078   -1.9234 C   0  0  0  0  0  0  0  0  0  0  0  0
    4.6384    0.0108   -0.3073 C   0  0  0  0  0  0  0  0  0  0  0  0
    3.2863   -1.2307   -1.8782 C   0  0  0  0  0  0  0  0  0  0  0  0
    5.7884   -0.5819   -0.8287 C   0  0  0  0  0  0  0  0  0  0  0  0
    4.4363   -1.8234   -2.3996 C   0  0  0  0  0  0  0  0  0  0  0  0
    1.9649    2.8299    0.0011 C   0  0  0  0  0  0  0  0  0  0  0  0
    1.5132    3.0480   -2.6810 C   0  0  0  0  0  0  0  0  0  0  0  0
    3.3874   -0.3136   -0.8321 C   0  0  0  0  0  0  0  0  0  0  0  0
    5.6874   -1.4990   -1.8748 C   0  0  0  0  0  0  0  0  0  0  0  0
    1.9206    1.7318   -0.8426 C   0  0  0  0  0  0  0  0  0  0  0  0
   -2.2452   -0.7243   -0.6927 C   0  0  0  0  0  0  0  0  0  0  0  0
   -2.1878   -1.0772    1.6832 C   0  0  0  0  0  0  0  0  0  0  0  0
    0.8692   -0.5649   -0.3644 C   0  0  0  0  0  0  0  0  0  0  0  0
   -0.2781   -0.1472    0.5603 C   0  0  0  0  0  0  0  0  0  0  0  0
    2.1313    0.3347   -0.2641 C   0  0  1  0  0  0  0  0  0  0  0  0
    1.6991    1.8087   -2.1741 N   0  0  0  0  0  0  0  0  0  0  0  0
   -1.3874   -1.0636    0.4511 N   0  0  0  0  0  0  0  0  0  0  0  0
    7.1062   -2.2299   -2.5179 Cl  0  0  0  0  0  0  0  0  0  0  0  0
    1.7960    4.9735    0.0704 H   0  0  0  0  0  0  0  0  0  0  0  0
    1.3828    5.1783   -2.3804 H   0  0  0  0  0  0  0  0  0  0  0  0
    4.7254    0.7242    0.5079 H   0  0  0  0  0  0  0  0  0  0  0  0
    2.3154   -1.4886   -2.2929 H   0  0  0  0  0  0  0  0  0  0  0  0
    6.7564   -0.3192   -0.4099 H   0  0  0  0  0  0  0  0  0  0  0  0
    4.3422   -2.5363   -3.2147 H   0  0  0  0  0  0  0  0  0  0  0  0
    2.1458    2.7229    1.0653 H   0  0  0  0  0  0  0  0  0  0  0  0
    1.3371    3.0874   -3.7510 H   0  0  0  0  0  0  0  0  0  0  0  0
   -1.6562   -0.7123   -1.6134 H   0  0  0  0  0  0  0  0  0  0  0  0
   -2.6939    0.2623   -0.5490 H   0  0  0  0  0  0  0  0  0  0  0  0
   -3.0457   -1.4617   -0.7966 H   0  0  0  0  0  0  0  0  0  0  0  0
   -1.5560   -1.3290    2.5389 H   0  0  0  0  0  0  0  0  0  0  0  0
   -2.9877   -1.8187    1.6060 H   0  0  0  0  0  0  0  0  0  0  0  0
   -2.6360   -0.0947    1.8536 H   0  0  0  0  0  0  0  0  0  0  0  0
    1.1158   -1.6093   -0.1393 H   0  0  0  0  0  0  0  0  0  0  0  0
    0.5051   -0.5524   -1.4011 H   0  0  0  0  0  0  0  0  0  0  0  0
   -0.6171    0.8700    0.3420 H   0  0  0  0  0  0  0  0  0  0  0  0
    0.0765   -0.1524    1.5967 H   0  0  0  0  0  0  0  0  0  0  0  0
    2.2932    0.4806    0.8137 H   0  0  0  0  0  0  0  0  0  0  0  0
  1  2  1  0  0  0  0
  1  7  2  0  0  0  0
  2  8  2  0  0  0  0
  3  5  2  0  0  0  0
  3  9  1  0  0  0  0
  4  6  1  0  0  0  0
  4  9  2  0  0  0  0
  5 10  1  0  0  0  0
  6 10  2  0  0  0  0
  7 11  1  0  0  0  0
  8 17  1  0  0  0  0
  9 16  1  0  0  0  0
 10 19  1  0  0  0  0
 11 16  1  0  0  0  0
 11 17  2  0  0  0  0
 12 18  1  0  0  0  0
 13 18  1  0  0  0  0
 14 15  1  0  0  0  0
 14 16  1  0  0  0  0
 15 18  1  0  0  0  0
  1 20  1  0  0  0  0
  2 21  1  0  0  0  0
  3 22  1  0  0  0  0
  4 23  1  0  0  0  0
  5 24  1  0  0  0  0
  6 25  1  0  0  0  0
  7 26  1  0  0  0  0
  8 27  1  0  0  0  0
 12 28  1  0  0  0  0
 12 29  1  0  0  0  0
 12 30  1  0  0  0  0
 13 31  1  0  0  0  0
 13 32  1  0  0  0  0
 13 33  1  0  0  0  0
 14 34  1  0  0  0  0
 14 35  1  0  0  0  0
 15 36  1  0  0  0  0
 15 37  1  0  0  0  0
 16 38  1  0  0  0  0
M  END
$$$$
