1-(4-chlorophenyl)sulfonyl-3-propyl-urea
  -OEChem-02121815203D

 30 30  0     0  0  0  0  0  0999 V2000
    3.7019   -1.1678    5.5677 C   0  0  0  0  0  0  0  0  0  0  0  0
    4.3465    1.1562    5.7116 C   0  0  0  0  0  0  0  0  0  0  0  0
    3.1300   -1.0878    6.8373 C   0  0  0  0  0  0  0  0  0  0  0  0
    3.7745    1.2362    6.9813 C   0  0  0  0  0  0  0  0  0  0  0  0
    4.3102   -0.0458    5.0048 C   0  0  0  0  0  0  0  0  0  0  0  0
    3.1662    0.1141    7.5442 C   0  0  0  0  0  0  0  0  0  0  0  0
    2.6715   -0.6074    1.9800 C   0  0  0  0  0  0  0  0  0  0  0  0
   -1.0767    0.8208    1.7183 C   0  0  0  0  0  0  0  0  0  0  0  0
   -0.6047   -0.6074    1.4856 C   0  0  0  0  0  0  0  0  0  0  0  0
    0.6263   -0.6824    0.5903 C   0  0  0  0  0  0  0  0  0  0  0  0
    1.7519    0.0072    1.1506 N   0  0  0  0  0  0  0  0  0  0  0  0
    3.7057    0.2827    2.4108 N   0  0  0  0  0  0  0  0  0  0  0  0
    2.6235   -1.7862    2.3189 O   0  0  0  0  0  0  0  0  0  0  0  0
    6.0580    0.8759    3.2968 O   0  0  0  0  0  0  0  0  0  0  0  0
    5.3655   -1.5411    3.1711 O   0  0  0  0  0  0  0  0  0  0  0  0
    5.0350   -0.1471    3.3960 S   0  0  0  0  0  0  0  0  0  0  0  0
    2.4605    0.2128    9.1106 Cl  0  0  0  0  0  0  0  0  0  0  0  0
    3.6681   -2.1091    5.0257 H   0  0  0  0  0  0  0  0  0  0  0  0
    4.8178    2.0364    5.2825 H   0  0  0  0  0  0  0  0  0  0  0  0
    2.6594   -1.9702    7.2635 H   0  0  0  0  0  0  0  0  0  0  0  0
    3.8102    2.1793    7.5205 H   0  0  0  0  0  0  0  0  0  0  0  0
   -0.2910    1.4221    2.1867 H   0  0  0  0  0  0  0  0  0  0  0  0
   -1.3393    1.2907    0.7650 H   0  0  0  0  0  0  0  0  0  0  0  0
   -1.9620    0.8488    2.3611 H   0  0  0  0  0  0  0  0  0  0  0  0
   -1.4183   -1.1732    1.0169 H   0  0  0  0  0  0  0  0  0  0  0  0
   -0.3962   -1.0799    2.4528 H   0  0  0  0  0  0  0  0  0  0  0  0
    0.9264   -1.7260    0.4530 H   0  0  0  0  0  0  0  0  0  0  0  0
    0.4269   -0.2526   -0.3964 H   0  0  0  0  0  0  0  0  0  0  0  0
    1.8792    0.9901    0.9283 H   0  0  0  0  0  0  0  0  0  0  0  0
    3.6691    1.2541    2.0770 H   0  0  0  0  0  0  0  0  0  0  0  0
  1  3  2  0  0  0  0
  1  5  1  0  0  0  0
  2  4  1  0  0  0  0
  2  5  2  0  0  0  0
  3  6  1  0  0  0  0
  4  6  2  0  0  0  0
  5 16  1  0  0  0  0
  6 17  1  0  0  0  0
  7 11  1  0  0  0  0
  7 12  1  0  0  0  0
  7 13  2  0  0  0  0
  8  9  1  0  0  0  0
  9 10  1  0  0  0  0
 10 11  1  0  0  0  0
 12 16  1  0  0  0  0
 14 16  2  0  0  0  0
 15 16  2  0  0  0  0
  1 18  1  0  0  0  0
  2 19  1  0  0  0  0
  3 20  1  0  0  0  0
  4 21  1  0  0  0  0
  8 22  1  0  0  0  0
  8 23  1  0  0  0  0
  8 24  1  0  0  0  0
  9 25  1  0  0  0  0
  9 26  1  0  0  0  0
 10 27  1  0  0  0  0
 10 28  1  0  0  0  0
 11 29  1  0  0  0  0
 12 30  1  0  0  0  0
M  END
$$$$
