3-(2-chlorothioxanthen-9-ylidene)-~{N},~{N}-dimethyl-propan-1-amine
  -OEChem-02121815203D

 39 41  0     0  0  0  0  0  0999 V2000
   -8.0957    0.8508    0.5875 C   0  0  0  0  0  0  0  0  0  0  0  0
   -8.4284   -0.4991    0.6121 C   0  0  0  0  0  0  0  0  0  0  0  0
   -6.8417    1.2529    0.1252 C   0  0  0  0  0  0  0  0  0  0  0  0
   -7.5043   -1.4506    0.1839 C   0  0  0  0  0  0  0  0  0  0  0  0
   -2.4020   -2.3731   -0.3551 C   0  0  0  0  0  0  0  0  0  0  0  0
   -1.1392   -1.8170   -0.1583 C   0  0  0  0  0  0  0  0  0  0  0  0
   -2.0843    0.3927   -0.3775 C   0  0  0  0  0  0  0  0  0  0  0  0
   -5.9038    0.3090   -0.3290 C   0  0  0  0  0  0  0  0  0  0  0  0
   -3.3623   -0.1506   -0.5975 C   0  0  0  0  0  0  0  0  0  0  0  0
   -6.2386   -1.0575   -0.2761 C   0  0  0  0  0  0  0  0  0  0  0  0
   -3.5184   -1.5493   -0.5634 C   0  0  0  0  0  0  0  0  0  0  0  0
   -0.9813   -0.4356   -0.1644 C   0  0  0  0  0  0  0  0  0  0  0  0
   -4.5558    0.7110   -0.8131 C   0  0  0  0  0  0  0  0  0  0  0  0
   -4.4353    1.8195   -1.5694 C   0  0  0  0  0  0  0  0  0  0  0  0
   -2.2720    4.7514   -4.8256 C   0  0  0  0  0  0  0  0  0  0  0  0
   -1.2970    2.5700   -4.5735 C   0  0  0  0  0  0  0  0  0  0  0  0
   -3.1322    2.3177   -2.1100 C   0  0  0  0  0  0  0  0  0  0  0  0
   -3.3110    3.1299   -3.3891 C   0  0  0  0  0  0  0  0  0  0  0  0
   -2.0621    3.6292   -3.8975 N   0  0  0  0  0  0  0  0  0  0  0  0
   -5.1062   -2.3419   -0.7978 S   0  0  0  0  0  0  0  0  0  0  0  0
    0.5741    0.2531    0.0963 Cl  0  0  0  0  0  0  0  0  0  0  0  0
   -8.8103    1.5930    0.9313 H   0  0  0  0  0  0  0  0  0  0  0  0
   -9.4044   -0.8125    0.9706 H   0  0  0  0  0  0  0  0  0  0  0  0
   -6.6086    2.3152    0.1355 H   0  0  0  0  0  0  0  0  0  0  0  0
   -7.7839   -2.5013    0.2202 H   0  0  0  0  0  0  0  0  0  0  0  0
   -2.5027   -3.4562   -0.3380 H   0  0  0  0  0  0  0  0  0  0  0  0
   -0.2895   -2.4750    0.0051 H   0  0  0  0  0  0  0  0  0  0  0  0
   -1.9433    1.4720   -0.3613 H   0  0  0  0  0  0  0  0  0  0  0  0
   -5.3297    2.3877   -1.7899 H   0  0  0  0  0  0  0  0  0  0  0  0
   -2.8401    5.5449   -4.3332 H   0  0  0  0  0  0  0  0  0  0  0  0
   -2.8270    4.4153   -5.7056 H   0  0  0  0  0  0  0  0  0  0  0  0
   -1.3105    5.1571   -5.1515 H   0  0  0  0  0  0  0  0  0  0  0  0
   -1.1351    1.7305   -3.8924 H   0  0  0  0  0  0  0  0  0  0  0  0
   -0.3253    2.9533   -4.8968 H   0  0  0  0  0  0  0  0  0  0  0  0
   -1.8418    2.2114   -5.4509 H   0  0  0  0  0  0  0  0  0  0  0  0
   -2.4369    1.4886   -2.2907 H   0  0  0  0  0  0  0  0  0  0  0  0
   -2.6744    2.9561   -1.3451 H   0  0  0  0  0  0  0  0  0  0  0  0
   -3.9470    3.9994   -3.1940 H   0  0  0  0  0  0  0  0  0  0  0  0
   -3.7802    2.5369   -4.1812 H   0  0  0  0  0  0  0  0  0  0  0  0
  1  2  1  0  0  0  0
  1  3  2  0  0  0  0
  2  4  2  0  0  0  0
  3  8  1  0  0  0  0
  4 10  1  0  0  0  0
  5  6  1  0  0  0  0
  5 11  2  0  0  0  0
  6 12  2  0  0  0  0
  7  9  2  0  0  0  0
  7 12  1  0  0  0  0
  8 10  2  0  0  0  0
  8 13  1  0  0  0  0
  9 11  1  0  0  0  0
  9 13  1  0  0  0  0
 10 20  1  0  0  0  0
 11 20  1  0  0  0  0
 12 21  1  0  0  0  0
 13 14  2  0  0  0  0
 14 17  1  0  0  0  0
 15 19  1  0  0  0  0
 16 19  1  0  0  0  0
 17 18  1  0  0  0  0
 18 19  1  0  0  0  0
  1 22  1  0  0  0  0
  2 23  1  0  0  0  0
  3 24  1  0  0  0  0
  4 25  1  0  0  0  0
  5 26  1  0  0  0  0
  6 27  1  0  0  0  0
  7 28  1  0  0  0  0
 14 29  1  0  0  0  0
 15 30  1  0  0  0  0
 15 31  1  0  0  0  0
 15 32  1  0  0  0  0
 16 33  1  0  0  0  0
 16 34  1  0  0  0  0
 16 35  1  0  0  0  0
 17 36  1  0  0  0  0
 17 37  1  0  0  0  0
 18 38  1  0  0  0  0
 18 39  1  0  0  0  0
M  END
$$$$
