1-cyano-2-methyl-3-[2-[(5-methyl-1~{H}-imidazol-4-yl)methylsulfanyl]ethyl]guanid
  -OEChem-02121815203D

 33 33  0     0  0  0  0  0  0999 V2000
    0.1516   -2.1167   -0.2706 C   0  0  0  0  0  0  0  0  0  0  0  0
    0.1605    4.4797    5.3929 C   0  0  0  0  0  0  0  0  0  0  0  0
    0.3620    3.6989    3.4231 C   0  0  0  0  0  0  0  0  0  0  0  0
   -0.7495    3.0845    3.9500 C   0  0  0  0  0  0  0  0  0  0  0  0
   -0.1602   -0.0550   -1.4732 C   0  0  0  0  0  0  0  0  0  0  0  0
   -1.6929    2.0944    3.4077 C   0  0  0  0  0  0  0  0  0  0  0  0
   -1.8199    0.0337   -3.1798 C   0  0  0  0  0  0  0  0  0  0  0  0
    0.9691    3.5230    2.0585 C   0  0  0  0  0  0  0  0  0  0  0  0
    1.3277    1.8380   -0.7945 C   0  0  0  0  0  0  0  0  0  0  0  0
    2.4420    2.1570    0.1929 C   0  0  0  0  0  0  0  0  0  0  0  0
    0.7141   -2.7111    0.5520 N   0  0  0  0  0  0  0  0  0  0  0  0
    0.9241    4.5659    4.3264 N   0  0  0  0  0  0  0  0  0  0  0  0
   -0.7666    0.6435   -2.3839 N   0  0  0  0  0  0  0  0  0  0  0  0
   -0.8657    3.5945    5.2124 N   0  0  0  0  0  0  0  0  0  0  0  0
   -0.5060   -1.4382   -1.2242 N   0  0  0  0  0  0  0  0  0  0  0  0
    0.8501    0.4782   -0.6878 N   0  0  0  0  0  0  0  0  0  0  0  0
    1.9011    1.9812    1.9204 S   0  0  0  0  0  0  0  0  0  0  0  0
    0.2943    5.0228    6.3176 H   0  0  0  0  0  0  0  0  0  0  0  0
   -1.3597    1.0634    3.6197 H   0  0  0  0  0  0  0  0  0  0  0  0
   -2.7078    2.2078    3.8304 H   0  0  0  0  0  0  0  0  0  0  0  0
   -1.8117    2.1854    2.3126 H   0  0  0  0  0  0  0  0  0  0  0  0
   -2.7883    0.1749   -2.6928 H   0  0  0  0  0  0  0  0  0  0  0  0
   -1.6324   -1.0372   -3.2941 H   0  0  0  0  0  0  0  0  0  0  0  0
   -1.8520    0.4942   -4.1705 H   0  0  0  0  0  0  0  0  0  0  0  0
    0.1870    3.5338    1.2912 H   0  0  0  0  0  0  0  0  0  0  0  0
    1.6388    4.3605    1.8336 H   0  0  0  0  0  0  0  0  0  0  0  0
    1.7027    1.9574   -1.8164 H   0  0  0  0  0  0  0  0  0  0  0  0
    0.4698    2.5078   -0.6737 H   0  0  0  0  0  0  0  0  0  0  0  0
    3.3051    1.5030    0.0317 H   0  0  0  0  0  0  0  0  0  0  0  0
    2.7699    3.1916    0.0524 H   0  0  0  0  0  0  0  0  0  0  0  0
   -1.5798    3.3630    5.8903 H   0  0  0  0  0  0  0  0  0  0  0  0
   -1.2489   -1.8768   -1.7806 H   0  0  0  0  0  0  0  0  0  0  0  0
    1.3075   -0.0910    0.0171 H   0  0  0  0  0  0  0  0  0  0  0  0
  1 11  3  0  0  0  0
  1 15  1  0  0  0  0
  2 12  2  0  0  0  0
  2 14  1  0  0  0  0
  3  4  2  0  0  0  0
  3  8  1  0  0  0  0
  3 12  1  0  0  0  0
  4  6  1  0  0  0  0
  4 14  1  0  0  0  0
  5 13  2  0  0  0  0
  5 15  1  0  0  0  0
  5 16  1  0  0  0  0
  7 13  1  0  0  0  0
  8 17  1  0  0  0  0
  9 10  1  0  0  0  0
  9 16  1  0  0  0  0
 10 17  1  0  0  0  0
  2 18  1  0  0  0  0
  6 19  1  0  0  0  0
  6 20  1  0  0  0  0
  6 21  1  0  0  0  0
  7 22  1  0  0  0  0
  7 23  1  0  0  0  0
  7 24  1  0  0  0  0
  8 25  1  0  0  0  0
  8 26  1  0  0  0  0
  9 27  1  0  0  0  0
  9 28  1  0  0  0  0
 10 29  1  0  0  0  0
 10 30  1  0  0  0  0
 14 31  1  0  0  0  0
 15 32  1  0  0  0  0
 16 33  1  0  0  0  0
M  END
$$$$
