1-cyclopropyl-6-fluoro-4-oxo-7-piperazin-1-yl-quinoline-3-carboxylic acid
  -OEChem-02121815203D

 42 45  0     0  0  0  0  0  0999 V2000
    5.8117    0.0919    2.3674 C   0  0  0  0  0  0  0  0  0  0  0  0
    3.9947   -1.4097    3.8577 C   0  0  0  0  0  0  0  0  0  0  0  0
    6.1479   -0.3534    3.6530 C   0  0  0  0  0  0  0  0  0  0  0  0
    5.2453   -1.1165    4.4302 C   0  0  0  0  0  0  0  0  0  0  0  0
    3.6591   -0.9653    2.5746 C   0  0  0  0  0  0  0  0  0  0  0  0
    4.5653   -0.2165    1.8316 C   0  0  0  0  0  0  0  0  0  0  0  0
    6.8778   -1.2097    6.2077 C   0  0  0  0  0  0  0  0  0  0  0  0
    7.4875   -0.0084    4.1995 C   0  0  0  0  0  0  0  0  0  0  0  0
    7.8045   -0.4967    5.5620 C   0  0  0  0  0  0  0  0  0  0  0  0
    9.0781   -0.2392    6.2360 C   0  0  0  0  0  0  0  0  0  0  0  0
    5.1584   -3.6596    7.1635 C   0  0  0  0  0  0  0  0  0  0  0  0
    4.1138   -3.6311    6.0871 C   0  0  0  0  0  0  0  0  0  0  0  0
    1.0135   -1.8673    0.0936 C   0  0  0  0  0  0  0  0  0  0  0  0
   -0.0547   -1.2721    2.1552 C   0  0  0  0  0  0  0  0  0  0  0  0
    2.3588   -2.0558    0.7937 C   0  0  0  0  0  0  0  0  0  0  0  0
    1.2516   -1.4370    2.9317 C   0  0  0  0  0  0  0  0  0  0  0  0
    4.7223   -2.3465    6.5758 C   0  0  0  0  0  0  0  0  0  0  0  0
   -0.1016   -2.1584    0.9935 N   0  0  0  0  0  0  0  0  0  0  0  0
    5.6266   -1.5452    5.7236 N   0  0  0  0  0  0  0  0  0  0  0  0
    2.4044   -1.2770    2.0387 N   0  0  0  0  0  0  0  0  0  0  0  0
    8.2934    0.6495    3.5535 O   0  0  0  0  0  0  0  0  0  0  0  0
    9.5911   -0.9841    7.0524 O   0  0  0  0  0  0  0  0  0  0  0  0
    9.5848    0.9386    5.8141 O   0  0  0  0  0  0  0  0  0  0  0  0
    4.2495    0.2123    0.6014 F   0  0  0  0  0  0  0  0  0  0  0  0
    6.5066    0.6780    1.7724 H   0  0  0  0  0  0  0  0  0  0  0  0
    3.2610   -1.9927    4.4105 H   0  0  0  0  0  0  0  0  0  0  0  0
    7.0674   -1.5873    7.2081 H   0  0  0  0  0  0  0  0  0  0  0  0
    4.8386   -3.9068    8.1684 H   0  0  0  0  0  0  0  0  0  0  0  0
    6.1419   -4.0298    6.9013 H   0  0  0  0  0  0  0  0  0  0  0  0
    4.3959   -3.9802    5.1015 H   0  0  0  0  0  0  0  0  0  0  0  0
    3.0940   -3.8601    6.3708 H   0  0  0  0  0  0  0  0  0  0  0  0
    0.9270   -0.8426   -0.2890 H   0  0  0  0  0  0  0  0  0  0  0  0
    0.9604   -2.5375   -0.7712 H   0  0  0  0  0  0  0  0  0  0  0  0
   -0.8974   -1.5025    2.8159 H   0  0  0  0  0  0  0  0  0  0  0  0
   -0.1742   -0.2298    1.8335 H   0  0  0  0  0  0  0  0  0  0  0  0
    2.5208   -3.1218    1.0170 H   0  0  0  0  0  0  0  0  0  0  0  0
    3.1636   -1.7392    0.1141 H   0  0  0  0  0  0  0  0  0  0  0  0
    1.2846   -0.6898    3.7382 H   0  0  0  0  0  0  0  0  0  0  0  0
    1.2843   -2.4301    3.4062 H   0  0  0  0  0  0  0  0  0  0  0  0
    4.0976   -1.7162    7.1990 H   0  0  0  0  0  0  0  0  0  0  0  0
   -0.9805   -2.0154    0.4969 H   0  0  0  0  0  0  0  0  0  0  0  0
   10.4410    1.1462    6.2455 H   0  0  0  0  0  0  0  0  0  0  0  0
  1  3  1  0  0  0  0
  1  6  2  0  0  0  0
  2  4  1  0  0  0  0
  2  5  2  0  0  0  0
  3  4  2  0  0  0  0
  3  8  1  0  0  0  0
  4 19  1  0  0  0  0
  5  6  1  0  0  0  0
  5 20  1  0  0  0  0
  6 24  1  0  0  0  0
  7  9  2  0  0  0  0
  7 19  1  0  0  0  0
  8  9  1  0  0  0  0
  8 21  2  0  0  0  0
  9 10  1  0  0  0  0
 10 22  2  0  0  0  0
 10 23  1  0  0  0  0
 11 12  1  0  0  0  0
 11 17  1  0  0  0  0
 12 17  1  0  0  0  0
 13 15  1  0  0  0  0
 13 18  1  0  0  0  0
 14 16  1  0  0  0  0
 14 18  1  0  0  0  0
 15 20  1  0  0  0  0
 16 20  1  0  0  0  0
 17 19  1  0  0  0  0
  1 25  1  0  0  0  0
  2 26  1  0  0  0  0
  7 27  1  0  0  0  0
 11 28  1  0  0  0  0
 11 29  1  0  0  0  0
 12 30  1  0  0  0  0
 12 31  1  0  0  0  0
 13 32  1  0  0  0  0
 13 33  1  0  0  0  0
 14 34  1  0  0  0  0
 14 35  1  0  0  0  0
 15 36  1  0  0  0  0
 15 37  1  0  0  0  0
 16 38  1  0  0  0  0
 16 39  1  0  0  0  0
 17 40  1  0  0  0  0
 18 41  1  0  0  0  0
 23 42  1  0  0  0  0
M  END
$$$$
