1-cyclopropyl-6-fluoro-7-(5-methyl-2,5-diazabicyclo[2.2.1]heptan-2-yl)-4-oxo-qui
  -OEChem-02121815203D

 46 50  0     1  0  0  0  0  0999 V2000
    5.0115   -0.1514    0.9602 C   0  0  0  0  0  0  0  0  0  0  0  0
    3.0815   -1.3918   -0.6253 C   0  0  0  0  0  0  0  0  0  0  0  0
    5.3821   -1.1369    0.0352 C   0  0  0  0  0  0  0  0  0  0  0  0
    4.4237   -1.7817   -0.7813 C   0  0  0  0  0  0  0  0  0  0  0  0
    2.7116   -0.4083    0.2979 C   0  0  0  0  0  0  0  0  0  0  0  0
    3.6742    0.2102    1.0884 C   0  0  0  0  0  0  0  0  0  0  0  0
    6.1849   -3.0927   -1.7877 C   0  0  0  0  0  0  0  0  0  0  0  0
    6.8192   -1.5027   -0.0798 C   0  0  0  0  0  0  0  0  0  0  0  0
    7.1702   -2.5492   -1.0682 C   0  0  0  0  0  0  0  0  0  0  0  0
    8.5381   -3.0174   -1.2971 C   0  0  0  0  0  0  0  0  0  0  0  0
    4.0678   -3.5129   -4.0709 C   0  0  0  0  0  0  0  0  0  0  0  0
    2.9407   -2.7206   -3.4772 C   0  0  0  0  0  0  0  0  0  0  0  0
   -0.6555    0.8540   -0.1921 C   0  0  0  0  0  0  0  0  0  0  0  0
    0.7618    0.4303    1.6573 C   0  0  0  0  0  0  0  0  0  0  0  0
   -0.4679   -1.4962   -0.1406 C   0  0  0  0  0  0  0  0  0  0  0  0
    3.8823   -3.4737   -2.5797 C   0  0  0  0  0  0  0  0  0  0  0  0
   -0.7353    0.3849    1.2552 C   0  0  2  0  0  0  0  0  0  0  0  0
    0.3267   -0.2558   -0.5705 C   0  0  2  0  0  0  0  0  0  0  0  0
   -2.5377   -1.2678    1.1353 C   0  0  0  0  0  0  0  0  0  0  0  0
    4.8426   -2.7713   -1.7018 N   0  0  0  0  0  0  0  0  0  0  0  0
    1.3927   -0.0544    0.4220 N   0  0  3  0  0  0  0  0  0  0  0  0
   -1.0950   -1.0527    1.1347 N   0  0  1  0  0  0  0  0  0  0  0  0
    7.6751   -0.9637    0.6106 O   0  0  0  0  0  0  0  0  0  0  0  0
    8.9557   -3.4376   -2.3617 O   0  0  0  0  0  0  0  0  0  0  0  0
    9.2511   -2.9106   -0.1560 O   0  0  0  0  0  0  0  0  0  0  0  0
    3.3259    1.1534    1.9750 F   0  0  0  0  0  0  0  0  0  0  0  0
    5.7495    0.3424    1.5863 H   0  0  0  0  0  0  0  0  0  0  0  0
    2.3019   -1.8547   -1.2267 H   0  0  0  0  0  0  0  0  0  0  0  0
    6.3964   -3.8631   -2.5233 H   0  0  0  0  0  0  0  0  0  0  0  0
    3.8180   -4.4255   -4.5982 H   0  0  0  0  0  0  0  0  0  0  0  0
    4.9017   -2.9649   -4.4919 H   0  0  0  0  0  0  0  0  0  0  0  0
    3.0183   -1.6406   -3.4976 H   0  0  0  0  0  0  0  0  0  0  0  0
    1.9355   -3.1020   -3.6074 H   0  0  0  0  0  0  0  0  0  0  0  0
   -1.6029    0.8031   -0.7379 H   0  0  0  0  0  0  0  0  0  0  0  0
   -0.2278    1.8579   -0.2927 H   0  0  0  0  0  0  0  0  0  0  0  0
    1.1004    1.4556    1.8548 H   0  0  0  0  0  0  0  0  0  0  0  0
    0.9747   -0.1959    2.5344 H   0  0  0  0  0  0  0  0  0  0  0  0
   -1.2153   -1.7441   -0.9045 H   0  0  0  0  0  0  0  0  0  0  0  0
    0.1624   -2.3747    0.0297 H   0  0  0  0  0  0  0  0  0  0  0  0
    3.4969   -4.3728   -2.1119 H   0  0  0  0  0  0  0  0  0  0  0  0
   -1.3757    0.9641    1.9252 H   0  0  0  0  0  0  0  0  0  0  0  0
    0.6673   -0.2522   -1.6120 H   0  0  0  0  0  0  0  0  0  0  0  0
   -2.9671   -0.9328    2.0830 H   0  0  0  0  0  0  0  0  0  0  0  0
   -2.7615   -2.3299    1.0033 H   0  0  0  0  0  0  0  0  0  0  0  0
   -3.0037   -0.7076    0.3202 H   0  0  0  0  0  0  0  0  0  0  0  0
   10.1762   -3.2163   -0.2705 H   0  0  0  0  0  0  0  0  0  0  0  0
  1  3  2  0  0  0  0
  1  6  1  0  0  0  0
  2  4  2  0  0  0  0
  2  5  1  0  0  0  0
  3  4  1  0  0  0  0
  3  8  1  0  0  0  0
  4 20  1  0  0  0  0
  5  6  2  0  0  0  0
  5 21  1  0  0  0  0
  6 26  1  0  0  0  0
  7  9  2  0  0  0  0
  7 20  1  0  0  0  0
  8  9  1  0  0  0  0
  8 23  2  0  0  0  0
  9 10  1  0  0  0  0
 10 24  2  0  0  0  0
 10 25  1  0  0  0  0
 11 12  1  0  0  0  0
 11 16  1  0  0  0  0
 12 16  1  0  0  0  0
 13 17  1  0  0  0  0
 13 18  1  0  0  0  0
 14 17  1  0  0  0  0
 14 21  1  0  0  0  0
 15 18  1  0  0  0  0
 15 22  1  0  0  0  0
 16 20  1  0  0  0  0
 17 22  1  0  0  0  0
 18 21  1  0  0  0  0
 19 22  1  0  0  0  0
  1 27  1  0  0  0  0
  2 28  1  0  0  0  0
  7 29  1  0  0  0  0
 11 30  1  0  0  0  0
 11 31  1  0  0  0  0
 12 32  1  0  0  0  0
 12 33  1  0  0  0  0
 13 34  1  0  0  0  0
 13 35  1  0  0  0  0
 14 36  1  0  0  0  0
 14 37  1  0  0  0  0
 15 38  1  0  0  0  0
 15 39  1  0  0  0  0
 16 40  1  0  0  0  0
 17 41  1  0  0  0  0
 18 42  1  0  0  0  0
 19 43  1  0  0  0  0
 19 44  1  0  0  0  0
 19 45  1  0  0  0  0
 25 46  1  0  0  0  0
M  END
$$$$
