(2~{R})-~{N}-methyl-1-phenyl-~{N}-prop-2-ynyl-propan-2-amine
  -OEChem-02121815203D

 31 31  0     1  0  0  0  0  0999 V2000
    0.1997    4.6335    0.9053 C   0  0  0  0  0  0  0  0  0  0  0  0
    0.0686    3.5056    1.2954 C   0  0  0  0  0  0  0  0  0  0  0  0
    0.0266   -4.5059    4.0304 C   0  0  0  0  0  0  0  0  0  0  0  0
   -0.5921   -4.1728    2.8255 C   0  0  0  0  0  0  0  0  0  0  0  0
    0.5905   -3.5072    4.8244 C   0  0  0  0  0  0  0  0  0  0  0  0
   -0.6468   -2.8410    2.4144 C   0  0  0  0  0  0  0  0  0  0  0  0
    0.5357   -2.1754    4.4133 C   0  0  0  0  0  0  0  0  0  0  0  0
   -0.0829   -1.8423    3.2084 C   0  0  0  0  0  0  0  0  0  0  0  0
    0.9225   -0.3900    0.4447 C   0  0  0  0  0  0  0  0  0  0  0  0
    1.8010    1.8987    3.2259 C   0  0  0  0  0  0  0  0  0  0  0  0
   -0.0969    2.1299    1.7709 C   0  0  0  0  0  0  0  0  0  0  0  0
   -0.1417   -0.4005    2.7639 C   0  0  0  0  0  0  0  0  0  0  0  0
    1.0633    0.0304    1.9078 C   0  0  2  0  0  0  0  0  0  0  0  0
    1.2029    1.4887    1.9572 N   0  0  2  0  0  0  0  0  0  0  0  0
    0.3164    5.6337    0.5588 H   0  0  0  0  0  0  0  0  0  0  0  0
    0.0680   -5.5428    4.3510 H   0  0  0  0  0  0  0  0  0  0  0  0
   -1.0321   -4.9502    2.2077 H   0  0  0  0  0  0  0  0  0  0  0  0
    1.0712   -3.7660    5.7631 H   0  0  0  0  0  0  0  0  0  0  0  0
   -1.1307   -2.5908    1.4740 H   0  0  0  0  0  0  0  0  0  0  0  0
    0.9778   -1.4040    5.0383 H   0  0  0  0  0  0  0  0  0  0  0  0
    0.0100    0.0278    0.0041 H   0  0  0  0  0  0  0  0  0  0  0  0
    0.8781   -1.4800    0.3408 H   0  0  0  0  0  0  0  0  0  0  0  0
    1.7644   -0.0272   -0.1536 H   0  0  0  0  0  0  0  0  0  0  0  0
    2.7723    1.4148    3.3571 H   0  0  0  0  0  0  0  0  0  0  0  0
    1.1516    1.6160    4.0588 H   0  0  0  0  0  0  0  0  0  0  0  0
    1.9426    2.9827    3.2442 H   0  0  0  0  0  0  0  0  0  0  0  0
   -0.6835    1.5476    1.0537 H   0  0  0  0  0  0  0  0  0  0  0  0
   -0.6404    2.1238    2.7211 H   0  0  0  0  0  0  0  0  0  0  0  0
   -1.0773   -0.2179    2.2184 H   0  0  0  0  0  0  0  0  0  0  0  0
   -0.2022    0.2216    3.6677 H   0  0  0  0  0  0  0  0  0  0  0  0
    1.9852   -0.4076    2.3076 H   0  0  0  0  0  0  0  0  0  0  0  0
  1  2  3  0  0  0  0
  2 11  1  0  0  0  0
  3  4  2  0  0  0  0
  3  5  1  0  0  0  0
  4  6  1  0  0  0  0
  5  7  2  0  0  0  0
  6  8  2  0  0  0  0
  7  8  1  0  0  0  0
  8 12  1  0  0  0  0
  9 13  1  0  0  0  0
 10 14  1  0  0  0  0
 11 14  1  0  0  0  0
 12 13  1  0  0  0  0
 13 14  1  0  0  0  0
  1 15  1  0  0  0  0
  3 16  1  0  0  0  0
  4 17  1  0  0  0  0
  5 18  1  0  0  0  0
  6 19  1  0  0  0  0
  7 20  1  0  0  0  0
  9 21  1  0  0  0  0
  9 22  1  0  0  0  0
  9 23  1  0  0  0  0
 10 24  1  0  0  0  0
 10 25  1  0  0  0  0
 10 26  1  0  0  0  0
 11 27  1  0  0  0  0
 11 28  1  0  0  0  0
 12 29  1  0  0  0  0
 12 30  1  0  0  0  0
 13 31  1  0  0  0  0
M  END
$$$$
