7-chloro-3-methyl-2~{H}-1$l^{6},2,4-benzothiadiazine 1,1-dioxide
  -OEChem-02121815203D

 21 22  0     0  0  0  0  0  0999 V2000
   -2.5504   -1.1942   -1.9085 C   0  0  0  0  0  0  0  0  0  0  0  0
   -1.6714   -0.2755   -1.3279 C   0  0  0  0  0  0  0  0  0  0  0  0
   -0.5746   -2.0683   -0.1524 C   0  0  0  0  0  0  0  0  0  0  0  0
   -2.4617   -2.5654   -1.6275 C   0  0  0  0  0  0  0  0  0  0  0  0
   -1.4621   -2.9748   -0.7398 C   0  0  0  0  0  0  0  0  0  0  0  0
   -0.6827   -0.7137   -0.4513 C   0  0  0  0  0  0  0  0  0  0  0  0
   -3.2971   -4.6968   -2.1881 C   0  0  0  0  0  0  0  0  0  0  0  0
   -4.2319   -5.5650   -2.9788 C   0  0  0  0  0  0  0  0  0  0  0  0
   -3.3789   -3.4100   -2.2786 N   0  0  0  0  0  0  0  0  0  0  0  0
   -2.3519   -5.4072   -1.4014 N   0  0  0  0  0  0  0  0  0  0  0  0
    0.0598   -5.0596   -0.6259 O   0  0  0  0  0  0  0  0  0  0  0  0
   -1.8338   -4.8036    1.0372 O   0  0  0  0  0  0  0  0  0  0  0  0
   -1.2970   -4.6657   -0.3017 S   0  0  0  0  0  0  0  0  0  0  0  0
    0.3986    0.4171    0.2639 Cl  0  0  0  0  0  0  0  0  0  0  0  0
   -3.3121   -0.8278   -2.5942 H   0  0  0  0  0  0  0  0  0  0  0  0
   -1.7719    0.7791   -1.5721 H   0  0  0  0  0  0  0  0  0  0  0  0
    0.1898   -2.4176    0.5375 H   0  0  0  0  0  0  0  0  0  0  0  0
   -3.7888   -5.7866   -3.9466 H   0  0  0  0  0  0  0  0  0  0  0  0
   -5.1770   -5.0455   -3.1199 H   0  0  0  0  0  0  0  0  0  0  0  0
   -4.4105   -6.4915   -2.4378 H   0  0  0  0  0  0  0  0  0  0  0  0
   -2.2548   -6.4204   -1.5458 H   0  0  0  0  0  0  0  0  0  0  0  0
  1  2  2  0  0  0  0
  1  4  1  0  0  0  0
  2  6  1  0  0  0  0
  3  5  1  0  0  0  0
  3  6  2  0  0  0  0
  4  5  2  0  0  0  0
  4  9  1  0  0  0  0
  5 13  1  0  0  0  0
  6 14  1  0  0  0  0
  7  8  1  0  0  0  0
  7  9  2  0  0  0  0
  7 10  1  0  0  0  0
 10 13  1  0  0  0  0
 11 13  2  0  0  0  0
 12 13  2  0  0  0  0
  1 15  1  0  0  0  0
  2 16  1  0  0  0  0
  3 17  1  0  0  0  0
  8 18  1  0  0  0  0
  8 19  1  0  0  0  0
  8 20  1  0  0  0  0
 10 21  1  0  0  0  0
M  END
$$$$
