6-fluoro-1-(4-fluorophenyl)-7-(4-methylpiperazin-1-yl)-4-oxo-quinoline-3-carboxy
  -OEChem-02121815203D

 48 51  0     0  0  0  0  0  0999 V2000
   -2.1807    1.4287    2.8734 C   0  0  0  0  0  0  0  0  0  0  0  0
   -3.3415   -0.5458    3.6420 C   0  0  0  0  0  0  0  0  0  0  0  0
   -3.3022    1.7994    2.1316 C   0  0  0  0  0  0  0  0  0  0  0  0
   -4.4631   -0.1751    2.9002 C   0  0  0  0  0  0  0  0  0  0  0  0
    2.6311   -0.8720    4.1382 C   0  0  0  0  0  0  0  0  0  0  0  0
    0.4662   -0.4436    2.4343 C   0  0  0  0  0  0  0  0  0  0  0  0
    1.3565   -0.6227    4.6654 C   0  0  0  0  0  0  0  0  0  0  0  0
   -2.2002    0.2561    3.6286 C   0  0  0  0  0  0  0  0  0  0  0  0
    0.2484   -0.3802    3.8232 C   0  0  0  0  0  0  0  0  0  0  0  0
    1.7377   -0.6944    1.9097 C   0  0  0  0  0  0  0  0  0  0  0  0
   -4.4435    0.9975    2.1450 C   0  0  0  0  0  0  0  0  0  0  0  0
    2.8186   -0.9013    2.7597 C   0  0  0  0  0  0  0  0  0  0  0  0
   -1.1714   -0.2090    5.7757 C   0  0  0  0  0  0  0  0  0  0  0  0
    1.1815   -0.6426    6.1387 C   0  0  0  0  0  0  0  0  0  0  0  0
   -0.1912   -0.4456    6.6522 C   0  0  0  0  0  0  0  0  0  0  0  0
   -0.5242   -0.4774    8.1265 C   0  0  0  0  0  0  0  0  0  0  0  0
    1.0642    0.0747   -0.3481 C   0  0  0  0  0  0  0  0  0  0  0  0
    2.4313   -1.9798   -0.0682 C   0  0  0  0  0  0  0  0  0  0  0  0
    1.7276    0.2812   -1.7120 C   0  0  0  0  0  0  0  0  0  0  0  0
    3.0513   -1.7064   -1.4403 C   0  0  0  0  0  0  0  0  0  0  0  0
    2.6884   -0.7956   -3.6401 C   0  0  0  0  0  0  0  0  0  0  0  0
   -1.0478   -0.1247    4.3907 N   0  0  0  0  0  0  0  0  0  0  0  0
    1.9200   -0.7367    0.5229 N   0  0  0  0  0  0  0  0  0  0  0  0
    2.1051   -1.0028   -2.3151 N   0  0  0  0  0  0  0  0  0  0  0  0
    2.1269   -0.8212    6.8961 O   0  0  0  0  0  0  0  0  0  0  0  0
   -1.4182    0.1660    8.6468 O   0  0  0  0  0  0  0  0  0  0  0  0
    0.3161   -1.3203    8.7631 O   0  0  0  0  0  0  0  0  0  0  0  0
   -5.5205    1.3534    1.4327 F   0  0  0  0  0  0  0  0  0  0  0  0
    4.0404   -1.1419    2.2633 F   0  0  0  0  0  0  0  0  0  0  0  0
   -1.2967    2.0612    2.8559 H   0  0  0  0  0  0  0  0  0  0  0  0
   -3.3676   -1.4617    4.2268 H   0  0  0  0  0  0  0  0  0  0  0  0
   -3.2874    2.7124    1.5437 H   0  0  0  0  0  0  0  0  0  0  0  0
   -5.3518   -0.7992    2.9101 H   0  0  0  0  0  0  0  0  0  0  0  0
    3.4850   -1.0532    4.7852 H   0  0  0  0  0  0  0  0  0  0  0  0
   -0.3595   -0.2857    1.7430 H   0  0  0  0  0  0  0  0  0  0  0  0
   -2.1923   -0.0486    6.1142 H   0  0  0  0  0  0  0  0  0  0  0  0
    0.8750    1.0574    0.1084 H   0  0  0  0  0  0  0  0  0  0  0  0
    0.0881   -0.4188   -0.4758 H   0  0  0  0  0  0  0  0  0  0  0  0
    1.6126   -2.7099   -0.1641 H   0  0  0  0  0  0  0  0  0  0  0  0
    3.1937   -2.4292    0.5851 H   0  0  0  0  0  0  0  0  0  0  0  0
    1.0174    0.8073   -2.3615 H   0  0  0  0  0  0  0  0  0  0  0  0
    2.6073    0.9292   -1.5979 H   0  0  0  0  0  0  0  0  0  0  0  0
    3.9730   -1.1215   -1.3176 H   0  0  0  0  0  0  0  0  0  0  0  0
    3.3325   -2.6680   -1.8865 H   0  0  0  0  0  0  0  0  0  0  0  0
    2.9667   -1.7557   -4.0824 H   0  0  0  0  0  0  0  0  0  0  0  0
    3.5820   -0.1700   -3.5660 H   0  0  0  0  0  0  0  0  0  0  0  0
    1.9679   -0.3011   -4.2971 H   0  0  0  0  0  0  0  0  0  0  0  0
    0.1304   -1.3673    9.7251 H   0  0  0  0  0  0  0  0  0  0  0  0
  1  3  2  0  0  0  0
  1  8  1  0  0  0  0
  2  4  1  0  0  0  0
  2  8  2  0  0  0  0
  3 11  1  0  0  0  0
  4 11  2  0  0  0  0
  5  7  2  0  0  0  0
  5 12  1  0  0  0  0
  6  9  2  0  0  0  0
  6 10  1  0  0  0  0
  7  9  1  0  0  0  0
  7 14  1  0  0  0  0
  8 22  1  0  0  0  0
  9 22  1  0  0  0  0
 10 12  2  0  0  0  0
 10 23  1  0  0  0  0
 11 28  1  0  0  0  0
 12 29  1  0  0  0  0
 13 15  2  0  0  0  0
 13 22  1  0  0  0  0
 14 15  1  0  0  0  0
 14 25  2  0  0  0  0
 15 16  1  0  0  0  0
 16 26  2  0  0  0  0
 16 27  1  0  0  0  0
 17 19  1  0  0  0  0
 17 23  1  0  0  0  0
 18 20  1  0  0  0  0
 18 23  1  0  0  0  0
 19 24  1  0  0  0  0
 20 24  1  0  0  0  0
 21 24  1  0  0  0  0
  1 30  1  0  0  0  0
  2 31  1  0  0  0  0
  3 32  1  0  0  0  0
  4 33  1  0  0  0  0
  5 34  1  0  0  0  0
  6 35  1  0  0  0  0
 13 36  1  0  0  0  0
 17 37  1  0  0  0  0
 17 38  1  0  0  0  0
 18 39  1  0  0  0  0
 18 40  1  0  0  0  0
 19 41  1  0  0  0  0
 19 42  1  0  0  0  0
 20 43  1  0  0  0  0
 20 44  1  0  0  0  0
 21 45  1  0  0  0  0
 21 46  1  0  0  0  0
 21 47  1  0  0  0  0
 27 48  1  0  0  0  0
M  END
$$$$
