[(2~{S},3~{S})-5-[2-(dimethylamino)ethyl]-2-(4-methoxyphenyl)-4-oxo-2,3-dihydro-
  -OEChem-02121815203D

 55 57  0     1  0  0  0  0  0999 V2000
    1.5529   -1.4454    0.3475 C   0  0  0  0  0  0  0  0  0  0  0  0
    0.9395   -0.4150   -0.3524 C   0  0  0  0  0  0  0  0  0  0  0  0
    4.0902   -0.1437   -6.9790 C   0  0  0  0  0  0  0  0  0  0  0  0
    5.9297   -0.4301   -5.4390 C   0  0  0  0  0  0  0  0  0  0  0  0
    2.7642   -1.9711   -0.1044 C   0  0  0  0  0  0  0  0  0  0  0  0
    4.9884    0.2081   -7.9865 C   0  0  0  0  0  0  0  0  0  0  0  0
    6.8279   -0.0783   -6.4465 C   0  0  0  0  0  0  0  0  0  0  0  0
    1.5452    0.1008   -1.4959 C   0  0  0  0  0  0  0  0  0  0  0  0
    4.5608   -0.4628   -5.7052 C   0  0  0  0  0  0  0  0  0  0  0  0
    3.3774   -1.4904   -1.2776 C   0  0  0  0  0  0  0  0  0  0  0  0
    6.3573    0.2407   -7.7203 C   0  0  0  0  0  0  0  0  0  0  0  0
    2.7601   -0.4256   -1.9671 C   0  0  0  0  0  0  0  0  0  0  0  0
    4.9159   -2.4059   -3.0414 C   0  0  0  0  0  0  0  0  0  0  0  0
    2.9281   -3.7543   -5.6918 C   0  0  0  0  0  0  0  0  0  0  0  0
    3.5799   -0.8477   -4.6047 C   0  0  1  0  0  0  0  0  0  0  0  0
    3.7811   -2.2680   -4.0534 C   0  0  1  0  0  0  0  0  0  0  0  0
    3.3427   -4.6862   -6.7899 C   0  0  0  0  0  0  0  0  0  0  0  0
    6.3498   -2.2372    2.3158 C   0  0  0  0  0  0  0  0  0  0  0  0
    7.8479   -0.5232    1.5475 C   0  0  0  0  0  0  0  0  0  0  0  0
    8.6191    0.5961   -8.3633 C   0  0  0  0  0  0  0  0  0  0  0  0
    5.5687   -2.4722   -0.6720 C   0  0  0  0  0  0  0  0  0  0  0  0
    6.0606   -1.2800    0.1313 C   0  0  0  0  0  0  0  0  0  0  0  0
    4.6126   -2.0828   -1.7086 N   0  0  0  0  0  0  0  0  0  0  0  0
    7.0153   -1.6640    1.1355 N   0  0  0  0  0  0  0  0  0  0  0  0
    6.0064   -2.8638   -3.3962 O   0  0  0  0  0  0  0  0  0  0  0  0
    1.7655   -3.5484   -5.3704 O   0  0  0  0  0  0  0  0  0  0  0  0
    7.2337    0.5828   -8.7039 O   0  0  0  0  0  0  0  0  0  0  0  0
    4.0325   -3.1819   -5.1179 O   0  0  0  0  0  0  0  0  0  0  0  0
    3.5390    0.4557   -3.3143 S   0  0  0  0  0  0  0  0  0  0  0  0
    1.0922   -1.8425    1.2476 H   0  0  0  0  0  0  0  0  0  0  0  0
   -0.0181   -0.0243   -0.0210 H   0  0  0  0  0  0  0  0  0  0  0  0
    3.0255   -0.1665   -7.1952 H   0  0  0  0  0  0  0  0  0  0  0  0
    6.3054   -0.6771   -4.4494 H   0  0  0  0  0  0  0  0  0  0  0  0
    3.2359   -2.7411    0.5006 H   0  0  0  0  0  0  0  0  0  0  0  0
    4.6157    0.4553   -8.9770 H   0  0  0  0  0  0  0  0  0  0  0  0
    7.8928   -0.0551   -6.2330 H   0  0  0  0  0  0  0  0  0  0  0  0
    1.0447    0.9092   -2.0238 H   0  0  0  0  0  0  0  0  0  0  0  0
    2.5762   -0.8019   -5.0511 H   0  0  0  0  0  0  0  0  0  0  0  0
    2.8747   -2.6120   -3.5926 H   0  0  0  0  0  0  0  0  0  0  0  0
    3.3957   -4.1433   -7.7368 H   0  0  0  0  0  0  0  0  0  0  0  0
    2.6342   -5.5154   -6.8600 H   0  0  0  0  0  0  0  0  0  0  0  0
    4.3330   -5.0931   -6.5655 H   0  0  0  0  0  0  0  0  0  0  0  0
    5.7279   -3.0865    2.0211 H   0  0  0  0  0  0  0  0  0  0  0  0
    5.7157   -1.4859    2.7943 H   0  0  0  0  0  0  0  0  0  0  0  0
    7.0938   -2.5803    3.0398 H   0  0  0  0  0  0  0  0  0  0  0  0
    8.3475   -0.0892    0.6775 H   0  0  0  0  0  0  0  0  0  0  0  0
    8.6074   -0.8487    2.2635 H   0  0  0  0  0  0  0  0  0  0  0  0
    7.2293    0.2458    2.0180 H   0  0  0  0  0  0  0  0  0  0  0  0
    9.2073    0.8852   -9.2377 H   0  0  0  0  0  0  0  0  0  0  0  0
    8.9205   -0.3969   -8.0204 H   0  0  0  0  0  0  0  0  0  0  0  0
    8.7813    1.3209   -7.5620 H   0  0  0  0  0  0  0  0  0  0  0  0
    5.0741   -3.2090   -0.0311 H   0  0  0  0  0  0  0  0  0  0  0  0
    6.4094   -2.9581   -1.1768 H   0  0  0  0  0  0  0  0  0  0  0  0
    6.5576   -0.5596   -0.5257 H   0  0  0  0  0  0  0  0  0  0  0  0
    5.2340   -0.7732    0.6397 H   0  0  0  0  0  0  0  0  0  0  0  0
  1  2  1  0  0  0  0
  1  5  2  0  0  0  0
  2  8  2  0  0  0  0
  3  6  2  0  0  0  0
  3  9  1  0  0  0  0
  4  7  1  0  0  0  0
  4  9  2  0  0  0  0
  5 10  1  0  0  0  0
  6 11  1  0  0  0  0
  7 11  2  0  0  0  0
  8 12  1  0  0  0  0
  9 15  1  0  0  0  0
 10 12  2  0  0  0  0
 10 23  1  0  0  0  0
 11 27  1  0  0  0  0
 12 29  1  0  0  0  0
 13 16  1  0  0  0  0
 13 23  1  0  0  0  0
 13 25  2  0  0  0  0
 14 17  1  0  0  0  0
 14 26  2  0  0  0  0
 14 28  1  0  0  0  0
 15 16  1  0  0  0  0
 15 29  1  0  0  0  0
 16 28  1  0  0  0  0
 18 24  1  0  0  0  0
 19 24  1  0  0  0  0
 20 27  1  0  0  0  0
 21 22  1  0  0  0  0
 21 23  1  0  0  0  0
 22 24  1  0  0  0  0
  1 30  1  0  0  0  0
  2 31  1  0  0  0  0
  3 32  1  0  0  0  0
  4 33  1  0  0  0  0
  5 34  1  0  0  0  0
  6 35  1  0  0  0  0
  7 36  1  0  0  0  0
  8 37  1  0  0  0  0
 15 38  1  0  0  0  0
 16 39  1  0  0  0  0
 17 40  1  0  0  0  0
 17 41  1  0  0  0  0
 17 42  1  0  0  0  0
 18 43  1  0  0  0  0
 18 44  1  0  0  0  0
 18 45  1  0  0  0  0
 19 46  1  0  0  0  0
 19 47  1  0  0  0  0
 19 48  1  0  0  0  0
 20 49  1  0  0  0  0
 20 50  1  0  0  0  0
 20 51  1  0  0  0  0
 21 52  1  0  0  0  0
 21 53  1  0  0  0  0
 22 54  1  0  0  0  0
 22 55  1  0  0  0  0
M  END
$$$$
