2-benzhydryloxy-~{N},~{N}-dimethyl-ethanamine
  -OEChem-02121815203D

 40 41  0     0  0  0  0  0  0999 V2000
    3.1075   -6.4433   -0.2184 C   0  0  0  0  0  0  0  0  0  0  0  0
    4.8346   -2.1026    5.2289 C   0  0  0  0  0  0  0  0  0  0  0  0
    3.1563   -6.9981    1.0604 C   0  0  0  0  0  0  0  0  0  0  0  0
    2.5981   -5.1578   -0.4021 C   0  0  0  0  0  0  0  0  0  0  0  0
    4.5596   -3.4345    5.5389 C   0  0  0  0  0  0  0  0  0  0  0  0
    4.0894   -1.4463    4.2493 C   0  0  0  0  0  0  0  0  0  0  0  0
    2.6955   -6.2674    2.1556 C   0  0  0  0  0  0  0  0  0  0  0  0
    2.1374   -4.4271    0.6931 C   0  0  0  0  0  0  0  0  0  0  0  0
    3.5396   -4.1102    4.8692 C   0  0  0  0  0  0  0  0  0  0  0  0
    3.0693   -2.1220    3.5795 C   0  0  0  0  0  0  0  0  0  0  0  0
    2.1861   -4.9819    1.9720 C   0  0  0  0  0  0  0  0  0  0  0  0
    2.7944   -3.4540    3.8895 C   0  0  0  0  0  0  0  0  0  0  0  0
   -3.3843   -1.1003    4.0346 C   0  0  0  0  0  0  0  0  0  0  0  0
   -1.4213   -0.5097    5.2877 C   0  0  0  0  0  0  0  0  0  0  0  0
   -1.2375   -1.9565    3.3784 C   0  0  0  0  0  0  0  0  0  0  0  0
   -0.1460   -2.8934    3.8627 C   0  0  0  0  0  0  0  0  0  0  0  0
    1.6854   -4.1881    3.1608 C   0  0  0  0  0  0  0  0  0  0  0  0
   -2.0778   -1.5574    4.5068 N   0  0  0  0  0  0  0  0  0  0  0  0
    0.6465   -3.3068    2.7568 O   0  0  0  0  0  0  0  0  0  0  0  0
    3.4675   -7.0118   -1.0709 H   0  0  0  0  0  0  0  0  0  0  0  0
    5.6280   -1.5762    5.7514 H   0  0  0  0  0  0  0  0  0  0  0  0
    3.5539   -7.9986    1.2037 H   0  0  0  0  0  0  0  0  0  0  0  0
    2.5610   -4.7251   -1.3974 H   0  0  0  0  0  0  0  0  0  0  0  0
    5.1391   -3.9453    6.3024 H   0  0  0  0  0  0  0  0  0  0  0  0
    4.3024   -0.4091    4.0084 H   0  0  0  0  0  0  0  0  0  0  0  0
    2.7372   -6.7078    3.1484 H   0  0  0  0  0  0  0  0  0  0  0  0
    1.7420   -3.4263    0.5405 H   0  0  0  0  0  0  0  0  0  0  0  0
    3.3326   -5.1479    5.1171 H   0  0  0  0  0  0  0  0  0  0  0  0
    2.4940   -1.6027    2.8176 H   0  0  0  0  0  0  0  0  0  0  0  0
   -3.8697   -1.8876    3.4519 H   0  0  0  0  0  0  0  0  0  0  0  0
   -3.2694   -0.2152    3.4031 H   0  0  0  0  0  0  0  0  0  0  0  0
   -4.0247   -0.8448    4.8831 H   0  0  0  0  0  0  0  0  0  0  0  0
   -0.4458   -0.8573    5.6376 H   0  0  0  0  0  0  0  0  0  0  0  0
   -2.0326   -0.2454    6.1549 H   0  0  0  0  0  0  0  0  0  0  0  0
   -1.2773    0.3843    4.6749 H   0  0  0  0  0  0  0  0  0  0  0  0
   -0.8141   -1.0524    2.9295 H   0  0  0  0  0  0  0  0  0  0  0  0
   -1.8716   -2.4590    2.6417 H   0  0  0  0  0  0  0  0  0  0  0  0
   -0.5910   -3.7867    4.3120 H   0  0  0  0  0  0  0  0  0  0  0  0
    0.5029   -2.4087    4.5994 H   0  0  0  0  0  0  0  0  0  0  0  0
    1.1999   -4.8782    3.8628 H   0  0  0  0  0  0  0  0  0  0  0  0
  1  3  2  0  0  0  0
  1  4  1  0  0  0  0
  2  5  1  0  0  0  0
  2  6  2  0  0  0  0
  3  7  1  0  0  0  0
  4  8  2  0  0  0  0
  5  9  2  0  0  0  0
  6 10  1  0  0  0  0
  7 11  2  0  0  0  0
  8 11  1  0  0  0  0
  9 12  1  0  0  0  0
 10 12  2  0  0  0  0
 11 17  1  0  0  0  0
 12 17  1  0  0  0  0
 13 18  1  0  0  0  0
 14 18  1  0  0  0  0
 15 16  1  0  0  0  0
 15 18  1  0  0  0  0
 16 19  1  0  0  0  0
 17 19  1  0  0  0  0
  1 20  1  0  0  0  0
  2 21  1  0  0  0  0
  3 22  1  0  0  0  0
  4 23  1  0  0  0  0
  5 24  1  0  0  0  0
  6 25  1  0  0  0  0
  7 26  1  0  0  0  0
  8 27  1  0  0  0  0
  9 28  1  0  0  0  0
 10 29  1  0  0  0  0
 13 30  1  0  0  0  0
 13 31  1  0  0  0  0
 13 32  1  0  0  0  0
 14 33  1  0  0  0  0
 14 34  1  0  0  0  0
 14 35  1  0  0  0  0
 15 36  1  0  0  0  0
 15 37  1  0  0  0  0
 16 38  1  0  0  0  0
 16 39  1  0  0  0  0
 17 40  1  0  0  0  0
M  END
$$$$
