1-cyclopropyl-7-(4-ethylpiperazin-1-yl)-6-fluoro-4-oxo-quinoline-3-carboxylic ac
  -OEChem-02121815203D

 48 51  0     0  0  0  0  0  0999 V2000
    2.5464   -1.1326    4.1342 C   0  0  0  0  0  0  0  0  0  0  0  0
    0.5551   -0.1662    2.4376 C   0  0  0  0  0  0  0  0  0  0  0  0
    1.3614   -0.6033    4.6632 C   0  0  0  0  0  0  0  0  0  0  0  0
    0.3354   -0.1066    3.8254 C   0  0  0  0  0  0  0  0  0  0  0  0
    1.7377   -0.6944    1.9097 C   0  0  0  0  0  0  0  0  0  0  0  0
    2.7306   -1.1763    2.7558 C   0  0  0  0  0  0  0  0  0  0  0  0
   -0.9753    0.4391    5.7792 C   0  0  0  0  0  0  0  0  0  0  0  0
    1.1925   -0.5696    6.1405 C   0  0  0  0  0  0  0  0  0  0  0  0
   -0.0734   -0.0017    6.6603 C   0  0  0  0  0  0  0  0  0  0  0  0
   -0.3868    0.1009    8.0865 C   0  0  0  0  0  0  0  0  0  0  0  0
   -3.3563    0.4476    3.7293 C   0  0  0  0  0  0  0  0  0  0  0  0
   -2.5806    0.1244    2.4866 C   0  0  0  0  0  0  0  0  0  0  0  0
    1.2893    0.2797   -0.3247 C   0  0  0  0  0  0  0  0  0  0  0  0
    2.1301   -2.0470   -0.1057 C   0  0  0  0  0  0  0  0  0  0  0  0
    1.9976    0.3647   -1.6791 C   0  0  0  0  0  0  0  0  0  0  0  0
    2.8121   -1.8864   -1.4663 C   0  0  0  0  0  0  0  0  0  0  0  0
   -1.9477    0.9486    3.5727 C   0  0  0  0  0  0  0  0  0  0  0  0
    1.9280    0.0602   -4.5324 C   0  0  0  0  0  0  0  0  0  0  0  0
    2.6982   -0.8498   -3.6372 C   0  0  0  0  0  0  0  0  0  0  0  0
   -0.8446    0.4191    4.4027 N   0  0  0  0  0  0  0  0  0  0  0  0
    1.9200   -0.7367    0.5229 N   0  0  0  0  0  0  0  0  0  0  0  0
    2.0681   -0.9533   -2.3215 N   0  0  0  0  0  0  0  0  0  0  0  0
    2.0599   -0.9921    6.8946 O   0  0  0  0  0  0  0  0  0  0  0  0
   -1.5117    0.0526    8.5521 O   0  0  0  0  0  0  0  0  0  0  0  0
    0.7537    0.2556    8.7917 O   0  0  0  0  0  0  0  0  0  0  0  0
    3.8662   -1.6837    2.2558 F   0  0  0  0  0  0  0  0  0  0  0  0
    3.3330   -1.5134    4.7796 H   0  0  0  0  0  0  0  0  0  0  0  0
   -0.1997    0.2021    1.7460 H   0  0  0  0  0  0  0  0  0  0  0  0
   -1.9168    0.8632    6.1158 H   0  0  0  0  0  0  0  0  0  0  0  0
   -4.1693    1.1582    3.6442 H   0  0  0  0  0  0  0  0  0  0  0  0
   -3.5328   -0.3542    4.4357 H   0  0  0  0  0  0  0  0  0  0  0  0
   -2.2342   -0.8938    2.3590 H   0  0  0  0  0  0  0  0  0  0  0  0
   -2.8743    0.6181    1.5685 H   0  0  0  0  0  0  0  0  0  0  0  0
    1.3322    1.2651    0.1622 H   0  0  0  0  0  0  0  0  0  0  0  0
    0.2258    0.0347   -0.4716 H   0  0  0  0  0  0  0  0  0  0  0  0
    1.1633   -2.5599   -0.2277 H   0  0  0  0  0  0  0  0  0  0  0  0
    2.7578   -2.6832    0.5355 H   0  0  0  0  0  0  0  0  0  0  0  0
    1.4386    1.0630   -2.3140 H   0  0  0  0  0  0  0  0  0  0  0  0
    3.0040    0.7830   -1.5413 H   0  0  0  0  0  0  0  0  0  0  0  0
    3.8443   -1.5397   -1.3217 H   0  0  0  0  0  0  0  0  0  0  0  0
    2.8633   -2.8734   -1.9419 H   0  0  0  0  0  0  0  0  0  0  0  0
   -1.8255    2.0075    3.3738 H   0  0  0  0  0  0  0  0  0  0  0  0
    0.9082   -0.3105   -4.6825 H   0  0  0  0  0  0  0  0  0  0  0  0
    1.8866    1.0730   -4.1171 H   0  0  0  0  0  0  0  0  0  0  0  0
    2.4151    0.1159   -5.5132 H   0  0  0  0  0  0  0  0  0  0  0  0
    3.7153   -0.4738   -3.4915 H   0  0  0  0  0  0  0  0  0  0  0  0
    2.7520   -1.8569   -4.0610 H   0  0  0  0  0  0  0  0  0  0  0  0
    0.5833    0.3285    9.7550 H   0  0  0  0  0  0  0  0  0  0  0  0
  1  3  2  0  0  0  0
  1  6  1  0  0  0  0
  2  4  2  0  0  0  0
  2  5  1  0  0  0  0
  3  4  1  0  0  0  0
  3  8  1  0  0  0  0
  4 20  1  0  0  0  0
  5  6  2  0  0  0  0
  5 21  1  0  0  0  0
  6 26  1  0  0  0  0
  7  9  2  0  0  0  0
  7 20  1  0  0  0  0
  8  9  1  0  0  0  0
  8 23  2  0  0  0  0
  9 10  1  0  0  0  0
 10 24  2  0  0  0  0
 10 25  1  0  0  0  0
 11 12  1  0  0  0  0
 11 17  1  0  0  0  0
 12 17  1  0  0  0  0
 13 15  1  0  0  0  0
 13 21  1  0  0  0  0
 14 16  1  0  0  0  0
 14 21  1  0  0  0  0
 15 22  1  0  0  0  0
 16 22  1  0  0  0  0
 17 20  1  0  0  0  0
 18 19  1  0  0  0  0
 19 22  1  0  0  0  0
  1 27  1  0  0  0  0
  2 28  1  0  0  0  0
  7 29  1  0  0  0  0
 11 30  1  0  0  0  0
 11 31  1  0  0  0  0
 12 32  1  0  0  0  0
 12 33  1  0  0  0  0
 13 34  1  0  0  0  0
 13 35  1  0  0  0  0
 14 36  1  0  0  0  0
 14 37  1  0  0  0  0
 15 38  1  0  0  0  0
 15 39  1  0  0  0  0
 16 40  1  0  0  0  0
 16 41  1  0  0  0  0
 17 42  1  0  0  0  0
 18 43  1  0  0  0  0
 18 44  1  0  0  0  0
 18 45  1  0  0  0  0
 19 46  1  0  0  0  0
 19 47  1  0  0  0  0
 25 48  1  0  0  0  0
M  END
$$$$
