3-[(2-guanidinothiazol-4-yl)methylsulfanyl]-~{N}'-sulfamoyl-propanamidine
  -OEChem-02121815203D

 35 35  0     0  0  0  0  0  0999 V2000
   -3.0970    3.8976    1.8934 C   0  0  0  0  0  0  0  0  0  0  0  0
   -3.3395    2.6044    1.4799 C   0  0  0  0  0  0  0  0  0  0  0  0
   -3.2117    3.5617   -0.4891 C   0  0  0  0  0  0  0  0  0  0  0  0
    0.9237    0.8889    1.7006 C   0  0  0  0  0  0  0  0  0  0  0  0
   -2.3277    3.1293   -2.6061 C   0  0  0  0  0  0  0  0  0  0  0  0
   -3.5335    1.4160    2.3809 C   0  0  0  0  0  0  0  0  0  0  0  0
    0.1026   -0.3971    1.6681 C   0  0  0  0  0  0  0  0  0  0  0  0
   -1.3984   -0.1280    1.6237 C   0  0  0  0  0  0  0  0  0  0  0  0
   -3.4061    2.4100    0.1141 N   0  0  0  0  0  0  0  0  0  0  0  0
   -3.2061    3.7640   -1.8309 N   0  0  0  0  0  0  0  0  0  0  0  0
    0.8428    1.6427    0.6443 N   0  0  0  0  0  0  0  0  0  0  0  0
    1.6614    1.1018    2.8421 N   0  0  0  0  0  0  0  0  0  0  0  0
   -2.2883    3.3060   -3.9691 N   0  0  0  0  0  0  0  0  0  0  0  0
   -1.3689    2.2387   -2.1737 N   0  0  0  0  0  0  0  0  0  0  0  0
    1.2987    3.7300   -0.9981 N   0  0  0  0  0  0  0  0  0  0  0  0
    3.0980    2.7413    0.5104 O   0  0  0  0  0  0  0  0  0  0  0  0
    1.1661    3.9699    1.5350 O   0  0  0  0  0  0  0  0  0  0  0  0
   -2.9424    4.9197    0.5250 S   0  0  0  0  0  0  0  0  0  0  0  0
   -1.9722    0.8181    3.0665 S   0  0  0  0  0  0  0  0  0  0  0  0
    1.6762    3.0443    0.5362 S   0  0  0  0  0  0  0  0  0  0  0  0
   -3.0049    4.2815    2.8997 H   0  0  0  0  0  0  0  0  0  0  0  0
   -4.2075    1.6716    3.2061 H   0  0  0  0  0  0  0  0  0  0  0  0
   -4.0114    0.5990    1.8290 H   0  0  0  0  0  0  0  0  0  0  0  0
    0.4179   -1.0287    0.8293 H   0  0  0  0  0  0  0  0  0  0  0  0
    0.3343   -0.9534    2.5853 H   0  0  0  0  0  0  0  0  0  0  0  0
   -1.6418    0.4493    0.7262 H   0  0  0  0  0  0  0  0  0  0  0  0
   -1.9642   -1.0643    1.5840 H   0  0  0  0  0  0  0  0  0  0  0  0
    1.6589    0.4395    3.6107 H   0  0  0  0  0  0  0  0  0  0  0  0
    2.2408    1.9263    2.9547 H   0  0  0  0  0  0  0  0  0  0  0  0
   -2.9344    3.9341   -4.4346 H   0  0  0  0  0  0  0  0  0  0  0  0
   -1.6140    2.8175   -4.5479 H   0  0  0  0  0  0  0  0  0  0  0  0
   -1.2748    2.0079   -1.1905 H   0  0  0  0  0  0  0  0  0  0  0  0
   -0.7252    1.7868   -2.8135 H   0  0  0  0  0  0  0  0  0  0  0  0
    0.3339    4.0619   -1.1246 H   0  0  0  0  0  0  0  0  0  0  0  0
    1.6506    3.2255   -1.8220 H   0  0  0  0  0  0  0  0  0  0  0  0
  1  2  2  0  0  0  0
  1 18  1  0  0  0  0
  2  6  1  0  0  0  0
  2  9  1  0  0  0  0
  3  9  2  0  0  0  0
  3 10  1  0  0  0  0
  3 18  1  0  0  0  0
  4  7  1  0  0  0  0
  4 11  2  0  0  0  0
  4 12  1  0  0  0  0
  5 10  2  0  0  0  0
  5 13  1  0  0  0  0
  5 14  1  0  0  0  0
  6 19  1  0  0  0  0
  7  8  1  0  0  0  0
  8 19  1  0  0  0  0
 11 20  1  0  0  0  0
 15 20  1  0  0  0  0
 16 20  2  0  0  0  0
 17 20  2  0  0  0  0
  1 21  1  0  0  0  0
  6 22  1  0  0  0  0
  6 23  1  0  0  0  0
  7 24  1  0  0  0  0
  7 25  1  0  0  0  0
  8 26  1  0  0  0  0
  8 27  1  0  0  0  0
 12 28  1  0  0  0  0
 12 29  1  0  0  0  0
 13 30  1  0  0  0  0
 13 31  1  0  0  0  0
 14 32  1  0  0  0  0
 14 33  1  0  0  0  0
 15 34  1  0  0  0  0
 15 35  1  0  0  0  0
M  END
$$$$
