2-(3-phenoxyphenyl)propanoic acid
  -OEChem-02121815203D

 32 33  0     1  0  0  0  0  0999 V2000
    2.8564   -4.7512    5.8704 C   0  0  0  0  0  0  0  0  0  0  0  0
    2.1888   -4.8554    4.6501 C   0  0  0  0  0  0  0  0  0  0  0  0
    3.8684   -3.8051    6.0332 C   0  0  0  0  0  0  0  0  0  0  0  0
    1.8851   -1.0363   -0.1124 C   0  0  0  0  0  0  0  0  0  0  0  0
    0.8066   -0.4630    0.5610 C   0  0  0  0  0  0  0  0  0  0  0  0
    2.5333   -4.0136    3.5926 C   0  0  0  0  0  0  0  0  0  0  0  0
    4.2129   -2.9633    4.9756 C   0  0  0  0  0  0  0  0  0  0  0  0
    2.9210   -1.6309    0.6081 C   0  0  0  0  0  0  0  0  0  0  0  0
    1.7997   -1.0786    2.6757 C   0  0  0  0  0  0  0  0  0  0  0  0
    0.7638   -0.4841    1.9551 C   0  0  0  0  0  0  0  0  0  0  0  0
    3.5454   -3.0675    3.7553 C   0  0  0  0  0  0  0  0  0  0  0  0
    2.8783   -1.6520    2.0022 C   0  0  0  0  0  0  0  0  0  0  0  0
   -1.1893   -0.8955    3.4867 C   0  0  0  0  0  0  0  0  0  0  0  0
    0.0072    1.3006    3.5968 C   0  0  0  0  0  0  0  0  0  0  0  0
   -0.3892    0.1293    2.6750 C   0  0  1  0  0  0  0  0  0  0  0  0
   -0.9102   -2.0849    3.5649 O   0  0  0  0  0  0  0  0  0  0  0  0
   -2.2649   -0.3542    4.1175 O   0  0  0  0  0  0  0  0  0  0  0  0
    3.8889   -2.2327    2.7053 O   0  0  0  0  0  0  0  0  0  0  0  0
    2.5880   -5.4060    6.6942 H   0  0  0  0  0  0  0  0  0  0  0  0
    1.4009   -5.5921    4.5231 H   0  0  0  0  0  0  0  0  0  0  0  0
    4.3877   -3.7244    6.9838 H   0  0  0  0  0  0  0  0  0  0  0  0
    1.9181   -1.0203   -1.1978 H   0  0  0  0  0  0  0  0  0  0  0  0
    0.0044   -0.0017   -0.0089 H   0  0  0  0  0  0  0  0  0  0  0  0
    2.0104   -4.1009    2.6441 H   0  0  0  0  0  0  0  0  0  0  0  0
    5.0033   -2.2294    5.1076 H   0  0  0  0  0  0  0  0  0  0  0  0
    3.7583   -2.0757    0.0777 H   0  0  0  0  0  0  0  0  0  0  0  0
    1.7692   -1.0964    3.7626 H   0  0  0  0  0  0  0  0  0  0  0  0
    0.7110    0.9825    4.3738 H   0  0  0  0  0  0  0  0  0  0  0  0
    0.4765    2.1037    3.0180 H   0  0  0  0  0  0  0  0  0  0  0  0
   -0.8612    1.7254    4.1123 H   0  0  0  0  0  0  0  0  0  0  0  0
   -1.0956    0.5432    1.9289 H   0  0  0  0  0  0  0  0  0  0  0  0
   -2.8049   -0.9830    4.6418 H   0  0  0  0  0  0  0  0  0  0  0  0
  1  2  2  0  0  0  0
  1  3  1  0  0  0  0
  2  6  1  0  0  0  0
  3  7  2  0  0  0  0
  4  5  1  0  0  0  0
  4  8  2  0  0  0  0
  5 10  2  0  0  0  0
  6 11  2  0  0  0  0
  7 11  1  0  0  0  0
  8 12  1  0  0  0  0
  9 10  1  0  0  0  0
  9 12  2  0  0  0  0
 10 15  1  0  0  0  0
 11 18  1  0  0  0  0
 12 18  1  0  0  0  0
 13 15  1  0  0  0  0
 13 16  2  0  0  0  0
 13 17  1  0  0  0  0
 14 15  1  0  0  0  0
  1 19  1  0  0  0  0
  2 20  1  0  0  0  0
  3 21  1  0  0  0  0
  4 22  1  0  0  0  0
  5 23  1  0  0  0  0
  6 24  1  0  0  0  0
  7 25  1  0  0  0  0
  8 26  1  0  0  0  0
  9 27  1  0  0  0  0
 14 28  1  0  0  0  0
 14 29  1  0  0  0  0
 14 30  1  0  0  0  0
 15 31  1  0  0  0  0
 17 32  1  0  0  0  0
M  END
$$$$
