7-fluoro-12-methyl-4-oxo-1-azatricyclo[7.3.1.0^{5,13}]trideca-2,5,7,9(13)-tetrae
  -OEChem-02121815203D

 31 33  0     1  0  0  0  0  0999 V2000
    0.8366    2.3690    0.3281 C   0  0  0  0  0  0  0  0  0  0  0  0
   -0.5161    2.2537   -1.6638 C   0  0  0  0  0  0  0  0  0  0  0  0
    0.5872    1.0131    0.5684 C   0  0  0  0  0  0  0  0  0  0  0  0
   -0.7839    0.8970   -1.4234 C   0  0  0  0  0  0  0  0  0  0  0  0
   -0.2130    0.2480   -0.3091 C   0  0  0  0  0  0  0  0  0  0  0  0
    0.2879    2.9840   -0.7925 C   0  0  0  0  0  0  0  0  0  0  0  0
    0.1309   -1.6935    1.0853 C   0  0  0  0  0  0  0  0  0  0  0  0
    1.1796    0.3750    1.7736 C   0  0  0  0  0  0  0  0  0  0  0  0
    0.8919   -1.0649    1.9883 C   0  0  0  0  0  0  0  0  0  0  0  0
    1.4038   -1.8325    3.1238 C   0  0  0  0  0  0  0  0  0  0  0  0
   -1.6641    0.1490   -2.3886 C   0  0  0  0  0  0  0  0  0  0  0  0
   -2.2446   -1.0963   -1.7327 C   0  0  0  0  0  0  0  0  0  0  0  0
   -1.1621   -1.9282   -1.0402 C   0  0  1  0  0  0  0  0  0  0  0  0
   -0.1777   -2.5592   -2.0296 C   0  0  0  0  0  0  0  0  0  0  0  0
   -0.4315   -1.1241   -0.0439 N   0  0  0  0  0  0  0  0  0  0  0  0
    1.8752    1.0099    2.5565 O   0  0  0  0  0  0  0  0  0  0  0  0
    1.6586   -3.0239    3.0948 O   0  0  0  0  0  0  0  0  0  0  0  0
    1.5464   -1.0213    4.1934 O   0  0  0  0  0  0  0  0  0  0  0  0
    0.5291    4.2797   -1.0312 F   0  0  0  0  0  0  0  0  0  0  0  0
    1.4554    2.9585    0.9984 H   0  0  0  0  0  0  0  0  0  0  0  0
   -0.9416    2.7503   -2.5326 H   0  0  0  0  0  0  0  0  0  0  0  0
   -0.1021   -2.7496    1.1821 H   0  0  0  0  0  0  0  0  0  0  0  0
   -2.4901    0.7895   -2.7202 H   0  0  0  0  0  0  0  0  0  0  0  0
   -1.0768   -0.1180   -3.2746 H   0  0  0  0  0  0  0  0  0  0  0  0
   -2.9913   -0.7937   -0.9857 H   0  0  0  0  0  0  0  0  0  0  0  0
   -2.7735   -1.6978   -2.4811 H   0  0  0  0  0  0  0  0  0  0  0  0
   -1.6780   -2.7496   -0.5243 H   0  0  0  0  0  0  0  0  0  0  0  0
    0.3556   -1.7762   -2.5631 H   0  0  0  0  0  0  0  0  0  0  0  0
   -0.7211   -3.1746   -2.7424 H   0  0  0  0  0  0  0  0  0  0  0  0
    0.5357   -3.1776   -1.4901 H   0  0  0  0  0  0  0  0  0  0  0  0
    1.8886   -1.5020    4.9770 H   0  0  0  0  0  0  0  0  0  0  0  0
  1  3  2  0  0  0  0
  1  6  1  0  0  0  0
  2  4  1  0  0  0  0
  2  6  2  0  0  0  0
  3  5  1  0  0  0  0
  3  8  1  0  0  0  0
  4  5  2  0  0  0  0
  4 11  1  0  0  0  0
  5 15  1  0  0  0  0
  6 19  1  0  0  0  0
  7  9  2  0  0  0  0
  7 15  1  0  0  0  0
  8  9  1  0  0  0  0
  8 16  2  0  0  0  0
  9 10  1  0  0  0  0
 10 17  2  0  0  0  0
 10 18  1  0  0  0  0
 11 12  1  0  0  0  0
 12 13  1  0  0  0  0
 13 14  1  0  0  0  0
 13 15  1  0  0  0  0
  1 20  1  0  0  0  0
  2 21  1  0  0  0  0
  7 22  1  0  0  0  0
 11 23  1  0  0  0  0
 11 24  1  0  0  0  0
 12 25  1  0  0  0  0
 12 26  1  0  0  0  0
 13 27  1  0  0  0  0
 14 28  1  0  0  0  0
 14 29  1  0  0  0  0
 14 30  1  0  0  0  0
 18 31  1  0  0  0  0
M  END
$$$$
