2-(3-fluoro-4-phenyl-phenyl)propanoic acid
  -OEChem-02121815203D

 31 32  0     1  0  0  0  0  0999 V2000
    1.8855   -1.0372   -0.1124 C   0  0  0  0  0  0  0  0  0  0  0  0
    0.8304   -1.6712    0.5434 C   0  0  0  0  0  0  0  0  0  0  0  0
    2.8978   -0.4239    0.6257 C   0  0  0  0  0  0  0  0  0  0  0  0
    0.7874   -1.6919    1.9375 C   0  0  0  0  0  0  0  0  0  0  0  0
    2.8549   -0.4446    2.0198 C   0  0  0  0  0  0  0  0  0  0  0  0
    0.6739   -0.5259    4.7901 C   0  0  0  0  0  0  0  0  0  0  0  0
    0.6257   -0.5450    6.1840 C   0  0  0  0  0  0  0  0  0  0  0  0
    2.7397   -1.7134    6.2410 C   0  0  0  0  0  0  0  0  0  0  0  0
    1.7997   -1.0786    2.6757 C   0  0  0  0  0  0  0  0  0  0  0  0
    1.7549   -1.1005    4.1216 C   0  0  0  0  0  0  0  0  0  0  0  0
    1.6586   -1.1388    6.9094 C   0  0  0  0  0  0  0  0  0  0  0  0
    2.7878   -1.6943    4.8471 C   0  0  0  0  0  0  0  0  0  0  0  0
    1.5409   -2.5830    8.9662 C   0  0  0  0  0  0  0  0  0  0  0  0
    2.7724   -0.4060    9.0717 C   0  0  0  0  0  0  0  0  0  0  0  0
    1.6069   -1.1602    8.3995 C   0  0  1  0  0  0  0  0  0  0  0  0
    1.5533   -3.5995    8.2842 O   0  0  0  0  0  0  0  0  0  0  0  0
    1.4561   -2.6138   10.3226 O   0  0  0  0  0  0  0  0  0  0  0  0
    3.8337   -2.2512    4.2191 F   0  0  0  0  0  0  0  0  0  0  0  0
    1.9196   -1.0226   -1.1979 H   0  0  0  0  0  0  0  0  0  0  0  0
    0.0430   -2.1502   -0.0311 H   0  0  0  0  0  0  0  0  0  0  0  0
    3.7205    0.0688    0.1157 H   0  0  0  0  0  0  0  0  0  0  0  0
   -0.0417   -2.1905    2.4341 H   0  0  0  0  0  0  0  0  0  0  0  0
    3.6514    0.0371    2.5818 H   0  0  0  0  0  0  0  0  0  0  0  0
   -0.1385   -0.0582    4.2390 H   0  0  0  0  0  0  0  0  0  0  0  0
   -0.2203   -0.0950    6.6964 H   0  0  0  0  0  0  0  0  0  0  0  0
    3.5485   -2.1788    6.7976 H   0  0  0  0  0  0  0  0  0  0  0  0
    3.7424   -0.8362    8.7990 H   0  0  0  0  0  0  0  0  0  0  0  0
    2.7701    0.6485    8.7748 H   0  0  0  0  0  0  0  0  0  0  0  0
    2.7064   -0.4444   10.1647 H   0  0  0  0  0  0  0  0  0  0  0  0
    0.6767   -0.6585    8.7312 H   0  0  0  0  0  0  0  0  0  0  0  0
    1.4052   -3.5089   10.7202 H   0  0  0  0  0  0  0  0  0  0  0  0
  1  2  2  0  0  0  0
  1  3  1  0  0  0  0
  2  4  1  0  0  0  0
  3  5  2  0  0  0  0
  4  9  2  0  0  0  0
  5  9  1  0  0  0  0
  6  7  2  0  0  0  0
  6 10  1  0  0  0  0
  7 11  1  0  0  0  0
  8 11  2  0  0  0  0
  8 12  1  0  0  0  0
  9 10  1  0  0  0  0
 10 12  2  0  0  0  0
 11 15  1  0  0  0  0
 12 18  1  0  0  0  0
 13 15  1  0  0  0  0
 13 16  2  0  0  0  0
 13 17  1  0  0  0  0
 14 15  1  0  0  0  0
  1 19  1  0  0  0  0
  2 20  1  0  0  0  0
  3 21  1  0  0  0  0
  4 22  1  0  0  0  0
  5 23  1  0  0  0  0
  6 24  1  0  0  0  0
  7 25  1  0  0  0  0
  8 26  1  0  0  0  0
 14 27  1  0  0  0  0
 14 28  1  0  0  0  0
 14 29  1  0  0  0  0
 15 30  1  0  0  0  0
 17 31  1  0  0  0  0
M  END
$$$$
