2-amino-1,7-dihydropurin-6-one
  -OEChem-02121815203D

 16 17  0     0  0  0  0  0  0999 V2000
    1.9635   -0.4780    0.6796 C   0  0  0  0  0  0  0  0  0  0  0  0
    0.1938   -0.9750    1.8833 C   0  0  0  0  0  0  0  0  0  0  0  0
    1.3528   -1.3719    2.5082 C   0  0  0  0  0  0  0  0  0  0  0  0
   -1.1139   -1.1641    2.4236 C   0  0  0  0  0  0  0  0  0  0  0  0
    0.1630   -2.1991    4.2816 C   0  0  0  0  0  0  0  0  0  0  0  0
    2.4535   -1.0603    1.7545 N   0  0  0  0  0  0  0  0  0  0  0  0
    1.3542   -2.0124    3.7604 N   0  0  0  0  0  0  0  0  0  0  0  0
    0.5952   -0.4030    0.7116 N   0  0  0  0  0  0  0  0  0  0  0  0
   -1.0347   -1.8017    3.6609 N   0  0  0  0  0  0  0  0  0  0  0  0
    0.0057   -2.8113    5.4990 N   0  0  0  0  0  0  0  0  0  0  0  0
   -2.1611   -0.8201    1.8868 O   0  0  0  0  0  0  0  0  0  0  0  0
    2.5367   -0.0918   -0.1514 H   0  0  0  0  0  0  0  0  0  0  0  0
    0.0001    0.0005    0.0003 H   0  0  0  0  0  0  0  0  0  0  0  0
   -1.9046   -1.9929    4.1491 H   0  0  0  0  0  0  0  0  0  0  0  0
    0.8196   -3.1129    5.9817 H   0  0  0  0  0  0  0  0  0  0  0  0
   -0.9159   -2.9291    5.8502 H   0  0  0  0  0  0  0  0  0  0  0  0
  1  6  2  0  0  0  0
  1  8  1  0  0  0  0
  2  3  2  0  0  0  0
  2  4  1  0  0  0  0
  2  8  1  0  0  0  0
  3  6  1  0  0  0  0
  3  7  1  0  0  0  0
  4  9  1  0  0  0  0
  4 11  2  0  0  0  0
  5  7  2  0  0  0  0
  5  9  1  0  0  0  0
  5 10  1  0  0  0  0
  1 12  1  0  0  0  0
  8 13  1  0  0  0  0
  9 14  1  0  0  0  0
 10 15  1  0  0  0  0
 10 16  1  0  0  0  0
M  END
$$$$
