5-(cyclohexen-1-yl)-1,5-dimethyl-hexahydropyrimidine-2,4,6-trione
  -OEChem-02121815203D

 33 34  0     1  0  0  0  0  0999 V2000
   -1.1034    1.9833    2.8677 C   0  0  0  0  0  0  0  0  0  0  0  0
   -0.5601    1.7865    1.6538 C   0  0  0  0  0  0  0  0  0  0  0  0
    1.2336    0.3749    0.8748 C   0  0  0  0  0  0  0  0  0  0  0  0
   -1.1713    0.1792   -0.0636 C   0  0  0  0  0  0  0  0  0  0  0  0
    0.7957   -0.6677   -1.3480 C   0  0  0  0  0  0  0  0  0  0  0  0
   -1.4548    3.3364    3.4123 C   0  0  0  0  0  0  0  0  0  0  0  0
   -0.2204    2.9351    0.7365 C   0  0  0  0  0  0  0  0  0  0  0  0
   -1.4468    4.4354    2.3495 C   0  0  0  0  0  0  0  0  0  0  0  0
   -0.2385    4.2996    1.4307 C   0  0  0  0  0  0  0  0  0  0  0  0
   -0.2577    0.4103    1.1319 C   0  0  2  0  0  0  0  0  0  0  0  0
   -0.5802   -0.6693    2.1739 C   0  0  0  0  0  0  0  0  0  0  0  0
   -1.4752   -0.8350   -2.2573 C   0  0  0  0  0  0  0  0  0  0  0  0
    1.6102   -0.2092   -0.3192 N   0  0  0  0  0  0  0  0  0  0  0  0
   -0.5812   -0.4525   -1.1687 N   0  0  0  0  0  0  0  0  0  0  0  0
    2.0607    0.7878    1.6894 O   0  0  0  0  0  0  0  0  0  0  0  0
   -2.3654    0.4914   -0.0197 O   0  0  0  0  0  0  0  0  0  0  0  0
    1.2910   -1.1965   -2.3471 O   0  0  0  0  0  0  0  0  0  0  0  0
   -1.3162    1.1325    3.5097 H   0  0  0  0  0  0  0  0  0  0  0  0
   -2.4476    3.2955    3.8747 H   0  0  0  0  0  0  0  0  0  0  0  0
   -0.7410    3.5844    4.2070 H   0  0  0  0  0  0  0  0  0  0  0  0
    0.7739    2.7827    0.3000 H   0  0  0  0  0  0  0  0  0  0  0  0
   -0.9387    2.9399   -0.0928 H   0  0  0  0  0  0  0  0  0  0  0  0
   -2.3659    4.3767    1.7525 H   0  0  0  0  0  0  0  0  0  0  0  0
   -1.4449    5.4182    2.8342 H   0  0  0  0  0  0  0  0  0  0  0  0
    0.6804    4.4249    2.0178 H   0  0  0  0  0  0  0  0  0  0  0  0
   -0.2456    5.0958    0.6778 H   0  0  0  0  0  0  0  0  0  0  0  0
   -0.3500   -1.6484    1.7634 H   0  0  0  0  0  0  0  0  0  0  0  0
   -1.6351   -0.6221    2.4288 H   0  0  0  0  0  0  0  0  0  0  0  0
    0.0163   -0.5007    3.0659 H   0  0  0  0  0  0  0  0  0  0  0  0
   -1.5567   -0.0195   -2.9806 H   0  0  0  0  0  0  0  0  0  0  0  0
   -2.4714   -1.0600   -1.8669 H   0  0  0  0  0  0  0  0  0  0  0  0
   -1.0905   -1.7216   -2.7684 H   0  0  0  0  0  0  0  0  0  0  0  0
    2.6107   -0.3011   -0.4726 H   0  0  0  0  0  0  0  0  0  0  0  0
  1  2  2  0  0  0  0
  1  6  1  0  0  0  0
  2  7  1  0  0  0  0
  2 10  1  0  0  0  0
  3 10  1  0  0  0  0
  3 13  1  0  0  0  0
  3 15  2  0  0  0  0
  4 10  1  0  0  0  0
  4 14  1  0  0  0  0
  4 16  2  0  0  0  0
  5 13  1  0  0  0  0
  5 14  1  0  0  0  0
  5 17  2  0  0  0  0
  6  8  1  0  0  0  0
  7  9  1  0  0  0  0
  8  9  1  0  0  0  0
 10 11  1  0  0  0  0
 12 14  1  0  0  0  0
  1 18  1  0  0  0  0
  6 19  1  0  0  0  0
  6 20  1  0  0  0  0
  7 21  1  0  0  0  0
  7 22  1  0  0  0  0
  8 23  1  0  0  0  0
  8 24  1  0  0  0  0
  9 25  1  0  0  0  0
  9 26  1  0  0  0  0
 11 27  1  0  0  0  0
 11 28  1  0  0  0  0
 11 29  1  0  0  0  0
 12 30  1  0  0  0  0
 12 31  1  0  0  0  0
 12 32  1  0  0  0  0
 13 33  1  0  0  0  0
M  END
$$$$
