2-(4-isobutylphenyl)propanoic acid
  -OEChem-02121815203D

 33 33  0     1  0  0  0  0  0999 V2000
   -0.6119    2.1906   -0.8108 C   0  0  0  0  0  0  0  0  0  0  0  0
   -2.5147    3.1790    0.3024 C   0  0  0  0  0  0  0  0  0  0  0  0
   -1.1644    2.5207   -2.0483 C   0  0  0  0  0  0  0  0  0  0  0  0
   -3.0672    3.5092   -0.9351 C   0  0  0  0  0  0  0  0  0  0  0  0
   -1.2871    2.5197    0.3646 C   0  0  0  0  0  0  0  0  0  0  0  0
   -2.3920    3.1800   -2.1105 C   0  0  0  0  0  0  0  0  0  0  0  0
   -4.3156    2.8260   -3.6930 C   0  0  0  0  0  0  0  0  0  0  0  0
   -3.1688    5.0506   -3.6436 C   0  0  0  0  0  0  0  0  0  0  0  0
   -0.6890   -0.3466    1.2673 C   0  0  0  0  0  0  0  0  0  0  0  0
   -0.4958    0.5291    3.6038 C   0  0  0  0  0  0  0  0  0  0  0  0
   -0.6900    2.1628    1.7040 C   0  0  0  0  0  0  0  0  0  0  0  0
   -2.9812    3.5342   -3.4340 C   0  0  1  0  0  0  0  0  0  0  0  0
   -1.1090    0.7732    2.2227 C   0  0  0  0  0  0  0  0  0  0  0  0
   -4.8619    2.0699   -2.9001 O   0  0  0  0  0  0  0  0  0  0  0  0
   -4.8438    3.1123   -4.9123 O   0  0  0  0  0  0  0  0  0  0  0  0
    0.3448    1.6763   -0.7719 H   0  0  0  0  0  0  0  0  0  0  0  0
   -3.0470    3.4403    1.2134 H   0  0  0  0  0  0  0  0  0  0  0  0
   -0.6306    2.2618   -2.9588 H   0  0  0  0  0  0  0  0  0  0  0  0
   -4.0242    4.0228   -0.9745 H   0  0  0  0  0  0  0  0  0  0  0  0
   -3.8389    5.4823   -2.8919 H   0  0  0  0  0  0  0  0  0  0  0  0
   -2.2059    5.5694   -3.5819 H   0  0  0  0  0  0  0  0  0  0  0  0
   -3.6062    5.2756   -4.6226 H   0  0  0  0  0  0  0  0  0  0  0  0
    0.3964   -0.3578    1.1207 H   0  0  0  0  0  0  0  0  0  0  0  0
   -1.1641   -0.2335    0.2879 H   0  0  0  0  0  0  0  0  0  0  0  0
   -0.9858   -1.3243    1.6621 H   0  0  0  0  0  0  0  0  0  0  0  0
    0.5980    0.5553    3.5543 H   0  0  0  0  0  0  0  0  0  0  0  0
   -0.8208    1.2887    4.3231 H   0  0  0  0  0  0  0  0  0  0  0  0
   -0.7877   -0.4527    3.9913 H   0  0  0  0  0  0  0  0  0  0  0  0
    0.4049    2.2283    1.6541 H   0  0  0  0  0  0  0  0  0  0  0  0
   -0.9979    2.9351    2.4218 H   0  0  0  0  0  0  0  0  0  0  0  0
   -2.2953    3.1901   -4.2328 H   0  0  0  0  0  0  0  0  0  0  0  0
   -2.2005    0.7362    2.3312 H   0  0  0  0  0  0  0  0  0  0  0  0
   -5.6956    2.6707   -5.1155 H   0  0  0  0  0  0  0  0  0  0  0  0
  1  3  2  0  0  0  0
  1  5  1  0  0  0  0
  2  4  1  0  0  0  0
  2  5  2  0  0  0  0
  3  6  1  0  0  0  0
  4  6  2  0  0  0  0
  5 11  1  0  0  0  0
  6 12  1  0  0  0  0
  7 12  1  0  0  0  0
  7 14  2  0  0  0  0
  7 15  1  0  0  0  0
  8 12  1  0  0  0  0
  9 13  1  0  0  0  0
 10 13  1  0  0  0  0
 11 13  1  0  0  0  0
  1 16  1  0  0  0  0
  2 17  1  0  0  0  0
  3 18  1  0  0  0  0
  4 19  1  0  0  0  0
  8 20  1  0  0  0  0
  8 21  1  0  0  0  0
  8 22  1  0  0  0  0
  9 23  1  0  0  0  0
  9 24  1  0  0  0  0
  9 25  1  0  0  0  0
 10 26  1  0  0  0  0
 10 27  1  0  0  0  0
 10 28  1  0  0  0  0
 11 29  1  0  0  0  0
 11 30  1  0  0  0  0
 12 31  1  0  0  0  0
 13 32  1  0  0  0  0
 15 33  1  0  0  0  0
M  END
$$$$
