(2~{S})-7-fluoro-2-methyl-6-(4-methylpiperazin-1-yl)-10-oxo-4-oxa-1-azatricyclo[
  -OEChem-02121815203D

 46 49  0     1  0  0  0  0  0999 V2000
    1.8286   -1.8147    4.0501 C   0  0  0  0  0  0  0  0  0  0  0  0
    1.3854   -0.6450    4.6765 C   0  0  0  0  0  0  0  0  0  0  0  0
    1.1167    0.5177    3.9288 C   0  0  0  0  0  0  0  0  0  0  0  0
    1.7377   -0.6944    1.9097 C   0  0  0  0  0  0  0  0  0  0  0  0
    1.2765    0.4650    2.5360 C   0  0  0  0  0  0  0  0  0  0  0  0
    2.0098   -1.8323    2.6676 C   0  0  0  0  0  0  0  0  0  0  0  0
    0.5490    1.7064    5.9492 C   0  0  0  0  0  0  0  0  0  0  0  0
    1.2017   -0.6214    6.1522 C   0  0  0  0  0  0  0  0  0  0  0  0
    0.7556    0.6611    6.7568 C   0  0  0  0  0  0  0  0  0  0  0  0
    0.5383    0.8331    8.2420 C   0  0  0  0  0  0  0  0  0  0  0  0
    1.1707   -1.7083   -0.2797 C   0  0  0  0  0  0  0  0  0  0  0  0
    3.2298   -0.3453   -0.0131 C   0  0  0  0  0  0  0  0  0  0  0  0
    1.1182   -1.2682   -1.7449 C   0  0  0  0  0  0  0  0  0  0  0  0
    3.1100    0.0516   -1.4863 C   0  0  0  0  0  0  0  0  0  0  0  0
    0.1051    2.4631    2.3374 C   0  0  0  0  0  0  0  0  0  0  0  0
    0.5694    2.8876    3.7315 C   0  0  2  0  0  0  0  0  0  0  0  0
    1.8929    3.6561    3.6884 C   0  0  0  0  0  0  0  0  0  0  0  0
    2.4061   -0.6443   -3.6818 C   0  0  0  0  0  0  0  0  0  0  0  0
    0.7052    1.6993    4.5782 N   0  0  0  0  0  0  0  0  0  0  0  0
    1.9200   -0.7367    0.5229 N   0  0  0  0  0  0  0  0  0  0  0  0
    2.4657   -1.0115   -2.2675 N   0  0  0  0  0  0  0  0  0  0  0  0
    1.4106   -1.6137    6.8384 O   0  0  0  0  0  0  0  0  0  0  0  0
   -0.2628    1.6052    8.7387 O   0  0  0  0  0  0  0  0  0  0  0  0
    1.0147    1.5431    1.7259 O   0  0  0  0  0  0  0  0  0  0  0  0
    1.3624    0.0065    8.9201 O   0  0  0  0  0  0  0  0  0  0  0  0
    2.4421   -2.9554    2.0761 F   0  0  0  0  0  0  0  0  0  0  0  0
    2.0412   -2.7151    4.6194 H   0  0  0  0  0  0  0  0  0  0  0  0
    0.2351    2.6724    6.3318 H   0  0  0  0  0  0  0  0  0  0  0  0
    0.1429   -1.8075    0.0996 H   0  0  0  0  0  0  0  0  0  0  0  0
    1.6438   -2.6997   -0.2017 H   0  0  0  0  0  0  0  0  0  0  0  0
    3.9401   -1.1799    0.0952 H   0  0  0  0  0  0  0  0  0  0  0  0
    3.6373    0.5047    0.5539 H   0  0  0  0  0  0  0  0  0  0  0  0
    0.6358   -2.0650   -2.3241 H   0  0  0  0  0  0  0  0  0  0  0  0
    0.4897   -0.3719   -1.8365 H   0  0  0  0  0  0  0  0  0  0  0  0
    2.5449    0.9898   -1.5697 H   0  0  0  0  0  0  0  0  0  0  0  0
    4.1187    0.2433   -1.8720 H   0  0  0  0  0  0  0  0  0  0  0  0
   -0.8921    2.0042    2.3741 H   0  0  0  0  0  0  0  0  0  0  0  0
    0.0317    3.3367    1.6799 H   0  0  0  0  0  0  0  0  0  0  0  0
   -0.1973    3.5518    4.1522 H   0  0  0  0  0  0  0  0  0  0  0  0
    2.6713    3.0195    3.2746 H   0  0  0  0  0  0  0  0  0  0  0  0
    2.1724    3.9583    4.6948 H   0  0  0  0  0  0  0  0  0  0  0  0
    1.7816    4.5400    3.0648 H   0  0  0  0  0  0  0  0  0  0  0  0
    3.4128   -0.4548   -4.0635 H   0  0  0  0  0  0  0  0  0  0  0  0
    1.8043    0.2591   -3.8128 H   0  0  0  0  0  0  0  0  0  0  0  0
    1.9556   -1.4529   -4.2636 H   0  0  0  0  0  0  0  0  0  0  0  0
    1.2501    0.0902    9.8910 H   0  0  0  0  0  0  0  0  0  0  0  0
  1  2  2  0  0  0  0
  1  6  1  0  0  0  0
  2  3  1  0  0  0  0
  2  8  1  0  0  0  0
  3  5  2  0  0  0  0
  3 19  1  0  0  0  0
  4  5  1  0  0  0  0
  4  6  2  0  0  0  0
  4 20  1  0  0  0  0
  5 24  1  0  0  0  0
  6 26  1  0  0  0  0
  7  9  2  0  0  0  0
  7 19  1  0  0  0  0
  8  9  1  0  0  0  0
  8 22  2  0  0  0  0
  9 10  1  0  0  0  0
 10 23  2  0  0  0  0
 10 25  1  0  0  0  0
 11 13  1  0  0  0  0
 11 20  1  0  0  0  0
 12 14  1  0  0  0  0
 12 20  1  0  0  0  0
 13 21  1  0  0  0  0
 14 21  1  0  0  0  0
 15 16  1  0  0  0  0
 15 24  1  0  0  0  0
 16 17  1  0  0  0  0
 16 19  1  0  0  0  0
 18 21  1  0  0  0  0
  1 27  1  0  0  0  0
  7 28  1  0  0  0  0
 11 29  1  0  0  0  0
 11 30  1  0  0  0  0
 12 31  1  0  0  0  0
 12 32  1  0  0  0  0
 13 33  1  0  0  0  0
 13 34  1  0  0  0  0
 14 35  1  0  0  0  0
 14 36  1  0  0  0  0
 15 37  1  0  0  0  0
 15 38  1  0  0  0  0
 16 39  1  0  0  0  0
 17 40  1  0  0  0  0
 17 41  1  0  0  0  0
 17 42  1  0  0  0  0
 18 43  1  0  0  0  0
 18 44  1  0  0  0  0
 18 45  1  0  0  0  0
 25 46  1  0  0  0  0
M  END
$$$$
