1-ethyl-6,8-difluoro-7-(3-methylpiperazin-1-yl)-4-oxo-quinoline-3-carboxylic aci
  -OEChem-02121815203D

 44 46  0     1  0  0  0  0  0999 V2000
    1.3418   -5.2259   -1.6863 C   0  0  0  0  0  0  0  0  0  0  0  0
    0.5140   -6.3477   -1.5433 C   0  0  0  0  0  0  0  0  0  0  0  0
   -0.6874   -6.2893   -0.7988 C   0  0  0  0  0  0  0  0  0  0  0  0
   -0.1901   -3.9370   -0.3499 C   0  0  0  0  0  0  0  0  0  0  0  0
    0.9858   -4.0217   -1.0876 C   0  0  0  0  0  0  0  0  0  0  0  0
   -1.0163   -5.0565   -0.2072 C   0  0  0  0  0  0  0  0  0  0  0  0
   -1.0910   -8.6182   -1.2955 C   0  0  0  0  0  0  0  0  0  0  0  0
    0.9203   -7.6216   -2.1947 C   0  0  0  0  0  0  0  0  0  0  0  0
    0.0191   -8.7845   -2.0192 C   0  0  0  0  0  0  0  0  0  0  0  0
    0.2795  -10.1030   -2.5991 C   0  0  0  0  0  0  0  0  0  0  0  0
   -2.2957   -1.1304    0.9286 C   0  0  0  0  0  0  0  0  0  0  0  0
   -1.8214   -2.1093   -0.1437 C   0  0  0  0  0  0  0  0  0  0  0  0
    0.4986   -1.7948    0.6931 C   0  0  0  0  0  0  0  0  0  0  0  0
   -0.0555   -0.8227    1.7457 C   0  0  1  0  0  0  0  0  0  0  0  0
    0.9917    0.2280    2.1102 C   0  0  0  0  0  0  0  0  0  0  0  0
   -2.4646   -7.4107    1.5523 C   0  0  0  0  0  0  0  0  0  0  0  0
   -2.7359   -7.3944    0.0865 C   0  0  0  0  0  0  0  0  0  0  0  0
   -1.2607   -0.1494    1.2494 N   0  0  0  0  0  0  0  0  0  0  0  0
   -1.4929   -7.4466   -0.6804 N   0  0  0  0  0  0  0  0  0  0  0  0
   -0.5477   -2.7247    0.2510 N   0  0  2  0  0  0  0  0  0  0  0  0
    1.9532   -7.7064   -2.8473 O   0  0  0  0  0  0  0  0  0  0  0  0
   -0.5848  -10.8921   -2.9377 O   0  0  0  0  0  0  0  0  0  0  0  0
    1.6112  -10.3010   -2.6964 O   0  0  0  0  0  0  0  0  0  0  0  0
    1.7814   -2.9521   -1.2291 F   0  0  0  0  0  0  0  0  0  0  0  0
   -2.1364   -4.9083    0.5166 F   0  0  0  0  0  0  0  0  0  0  0  0
    2.2630   -5.2726   -2.2606 H   0  0  0  0  0  0  0  0  0  0  0  0
   -1.7824   -9.4405   -1.1386 H   0  0  0  0  0  0  0  0  0  0  0  0
   -3.1909   -0.6062    0.5766 H   0  0  0  0  0  0  0  0  0  0  0  0
   -2.5858   -1.6718    1.8376 H   0  0  0  0  0  0  0  0  0  0  0  0
   -2.5913   -2.8816   -0.2881 H   0  0  0  0  0  0  0  0  0  0  0  0
   -1.7000   -1.5867   -1.1051 H   0  0  0  0  0  0  0  0  0  0  0  0
    0.8891   -1.2410   -0.1756 H   0  0  0  0  0  0  0  0  0  0  0  0
    1.3416   -2.3538    1.1266 H   0  0  0  0  0  0  0  0  0  0  0  0
   -0.3085   -1.3787    2.6575 H   0  0  0  0  0  0  0  0  0  0  0  0
    1.2656    0.7991    1.2246 H   0  0  0  0  0  0  0  0  0  0  0  0
    1.8801   -0.2591    2.5091 H   0  0  0  0  0  0  0  0  0  0  0  0
    0.5889    0.9057    2.8612 H   0  0  0  0  0  0  0  0  0  0  0  0
   -1.9359   -8.3254    1.8417 H   0  0  0  0  0  0  0  0  0  0  0  0
   -1.8692   -6.5404    1.8488 H   0  0  0  0  0  0  0  0  0  0  0  0
   -3.4109   -7.3781    2.1055 H   0  0  0  0  0  0  0  0  0  0  0  0
   -3.2639   -6.4785   -0.1956 H   0  0  0  0  0  0  0  0  0  0  0  0
   -3.3439   -8.2557   -0.2053 H   0  0  0  0  0  0  0  0  0  0  0  0
   -1.0301    0.3809    0.4089 H   0  0  0  0  0  0  0  0  0  0  0  0
    1.8255  -11.1772   -3.0819 H   0  0  0  0  0  0  0  0  0  0  0  0
  1  2  2  0  0  0  0
  1  5  1  0  0  0  0
  2  3  1  0  0  0  0
  2  8  1  0  0  0  0
  3  6  2  0  0  0  0
  3 19  1  0  0  0  0
  4  5  2  0  0  0  0
  4  6  1  0  0  0  0
  4 20  1  0  0  0  0
  5 24  1  0  0  0  0
  6 25  1  0  0  0  0
  7  9  2  0  0  0  0
  7 19  1  0  0  0  0
  8  9  1  0  0  0  0
  8 21  2  0  0  0  0
  9 10  1  0  0  0  0
 10 22  2  0  0  0  0
 10 23  1  0  0  0  0
 11 12  1  0  0  0  0
 11 18  1  0  0  0  0
 12 20  1  0  0  0  0
 13 14  1  0  0  0  0
 13 20  1  0  0  0  0
 14 15  1  0  0  0  0
 14 18  1  0  0  0  0
 16 17  1  0  0  0  0
 17 19  1  0  0  0  0
  1 26  1  0  0  0  0
  7 27  1  0  0  0  0
 11 28  1  0  0  0  0
 11 29  1  0  0  0  0
 12 30  1  0  0  0  0
 12 31  1  0  0  0  0
 13 32  1  0  0  0  0
 13 33  1  0  0  0  0
 14 34  1  0  0  0  0
 15 35  1  0  0  0  0
 15 36  1  0  0  0  0
 15 37  1  0  0  0  0
 16 38  1  0  0  0  0
 16 39  1  0  0  0  0
 16 40  1  0  0  0  0
 17 41  1  0  0  0  0
 17 42  1  0  0  0  0
 18 43  1  0  0  0  0
 23 44  1  0  0  0  0
M  END
$$$$
