4-[4-(4-chlorophenyl)-4-hydroxy-1-piperidyl]-~{N},~{N}-dimethyl-2,2-diphenyl-but
  -OEChem-02121815203D

 67 70  0     0  0  0  0  0  0999 V2000
    0.2083    7.1969   -4.9128 C   0  0  0  0  0  0  0  0  0  0  0  0
   -6.6049    6.5366   -4.0047 C   0  0  0  0  0  0  0  0  0  0  0  0
   -0.1476    6.8798   -3.6020 C   0  0  0  0  0  0  0  0  0  0  0  0
   -0.4349    6.5713   -5.9809 C   0  0  0  0  0  0  0  0  0  0  0  0
   -5.8263    6.5443   -5.1619 C   0  0  0  0  0  0  0  0  0  0  0  0
   -6.1986    5.7945   -2.8956 C   0  0  0  0  0  0  0  0  0  0  0  0
   -0.3058   -1.2333    2.2823 C   0  0  0  0  0  0  0  0  0  0  0  0
    0.5761    0.7610    3.3226 C   0  0  0  0  0  0  0  0  0  0  0  0
   -1.1466    5.9371   -3.3591 C   0  0  0  0  0  0  0  0  0  0  0  0
   -1.4339    5.6286   -5.7381 C   0  0  0  0  0  0  0  0  0  0  0  0
   -4.6414    5.8099   -5.2102 C   0  0  0  0  0  0  0  0  0  0  0  0
   -5.0137    5.0601   -2.9439 C   0  0  0  0  0  0  0  0  0  0  0  0
   -0.3383   -1.8670    3.5245 C   0  0  0  0  0  0  0  0  0  0  0  0
    0.5436    0.1273    4.5649 C   0  0  0  0  0  0  0  0  0  0  0  0
    0.1515    0.0807    2.1814 C   0  0  0  0  0  0  0  0  0  0  0  0
   -1.7898    5.3115   -4.4272 C   0  0  0  0  0  0  0  0  0  0  0  0
   -4.2351    5.0678   -4.1012 C   0  0  0  0  0  0  0  0  0  0  0  0
    0.0864   -1.1867    4.6657 C   0  0  0  0  0  0  0  0  0  0  0  0
   -2.9227    3.1554   -5.2933 C   0  0  0  0  0  0  0  0  0  0  0  0
   -0.3119   -0.0827   -0.3641 C   0  0  0  0  0  0  0  0  0  0  0  0
   -0.6372    2.0850    0.8588 C   0  0  0  0  0  0  0  0  0  0  0  0
   -0.3894    0.6972   -1.6818 C   0  0  0  0  0  0  0  0  0  0  0  0
   -0.7316    2.7824   -0.5044 C   0  0  0  0  0  0  0  0  0  0  0  0
    0.1857    0.7765    0.8196 C   0  0  0  0  0  0  0  0  0  0  0  0
   -4.3273    1.9284   -6.9903 C   0  0  0  0  0  0  0  0  0  0  0  0
   -5.2418    2.3222   -4.7591 C   0  0  0  0  0  0  0  0  0  0  0  0
   -2.6492    3.4420   -2.8195 C   0  0  0  0  0  0  0  0  0  0  0  0
   -1.3734    2.5793   -2.8155 C   0  0  0  0  0  0  0  0  0  0  0  0
   -2.9153    4.2491   -4.1543 C   0  0  0  0  0  0  0  0  0  0  0  0
   -1.2468    1.8786   -1.5378 N   0  0  0  0  0  0  0  0  0  0  0  0
   -4.1067    2.5003   -5.6630 N   0  0  0  0  0  0  0  0  0  0  0  0
   -1.8423    2.8309   -5.8104 O   0  0  0  0  0  0  0  0  0  0  0  0
    1.5670    1.0881    0.5847 O   0  0  0  0  0  0  0  0  0  0  0  0
    0.0460   -1.9685    6.1980 Cl  0  0  0  0  0  0  0  0  0  0  0  0
    0.9853    7.9319   -5.1018 H   0  0  0  0  0  0  0  0  0  0  0  0
   -7.5268    7.1096   -3.9668 H   0  0  0  0  0  0  0  0  0  0  0  0
    0.3523    7.3676   -2.7702 H   0  0  0  0  0  0  0  0  0  0  0  0
   -0.1588    6.8187   -7.0016 H   0  0  0  0  0  0  0  0  0  0  0  0
   -6.1419    7.1229   -6.0252 H   0  0  0  0  0  0  0  0  0  0  0  0
   -6.8040    5.7892   -1.9940 H   0  0  0  0  0  0  0  0  0  0  0  0
   -0.6382   -1.7701    1.3977 H   0  0  0  0  0  0  0  0  0  0  0  0
    0.9335    1.7849    3.2526 H   0  0  0  0  0  0  0  0  0  0  0  0
   -1.4172    5.6962   -2.3345 H   0  0  0  0  0  0  0  0  0  0  0  0
   -1.9294    5.1462   -6.5764 H   0  0  0  0  0  0  0  0  0  0  0  0
   -4.0412    5.8216   -6.1162 H   0  0  0  0  0  0  0  0  0  0  0  0
   -4.7051    4.4848   -2.0750 H   0  0  0  0  0  0  0  0  0  0  0  0
   -0.6974   -2.8909    3.5878 H   0  0  0  0  0  0  0  0  0  0  0  0
    0.8777    0.6698    5.4455 H   0  0  0  0  0  0  0  0  0  0  0  0
   -1.3058   -0.4928   -0.1367 H   0  0  0  0  0  0  0  0  0  0  0  0
    0.3596   -0.9388   -0.5103 H   0  0  0  0  0  0  0  0  0  0  0  0
   -0.1898    2.7854    1.5760 H   0  0  0  0  0  0  0  0  0  0  0  0
   -1.6554    1.8730    1.2137 H   0  0  0  0  0  0  0  0  0  0  0  0
    0.6182    0.9760   -2.0152 H   0  0  0  0  0  0  0  0  0  0  0  0
   -0.8060    0.0285   -2.4449 H   0  0  0  0  0  0  0  0  0  0  0  0
   -1.4056    3.6411   -0.3959 H   0  0  0  0  0  0  0  0  0  0  0  0
    0.2516    3.1807   -0.7857 H   0  0  0  0  0  0  0  0  0  0  0  0
   -3.9898    0.8890   -7.0123 H   0  0  0  0  0  0  0  0  0  0  0  0
   -3.7720    2.4947   -7.7429 H   0  0  0  0  0  0  0  0  0  0  0  0
   -5.3906    1.9587   -7.2429 H   0  0  0  0  0  0  0  0  0  0  0  0
   -5.9276    3.1690   -4.8458 H   0  0  0  0  0  0  0  0  0  0  0  0
   -4.8942    2.2554   -3.7245 H   0  0  0  0  0  0  0  0  0  0  0  0
   -5.7822    1.4047   -5.0071 H   0  0  0  0  0  0  0  0  0  0  0  0
   -2.6143    4.1158   -1.9558 H   0  0  0  0  0  0  0  0  0  0  0  0
   -3.4915    2.7770   -2.6010 H   0  0  0  0  0  0  0  0  0  0  0  0
   -0.4793    3.1894   -2.9685 H   0  0  0  0  0  0  0  0  0  0  0  0
   -1.4074    1.8319   -3.6142 H   0  0  0  0  0  0  0  0  0  0  0  0
    1.6096    1.5316   -0.2774 H   0  0  0  0  0  0  0  0  0  0  0  0
  1  3  1  0  0  0  0
  1  4  2  0  0  0  0
  2  5  1  0  0  0  0
  2  6  2  0  0  0  0
  3  9  2  0  0  0  0
  4 10  1  0  0  0  0
  5 11  2  0  0  0  0
  6 12  1  0  0  0  0
  7 13  2  0  0  0  0
  7 15  1  0  0  0  0
  8 14  1  0  0  0  0
  8 15  2  0  0  0  0
  9 16  1  0  0  0  0
 10 16  2  0  0  0  0
 11 17  1  0  0  0  0
 12 17  2  0  0  0  0
 13 18  1  0  0  0  0
 14 18  2  0  0  0  0
 15 24  1  0  0  0  0
 16 29  1  0  0  0  0
 17 29  1  0  0  0  0
 18 34  1  0  0  0  0
 19 29  1  0  0  0  0
 19 31  1  0  0  0  0
 19 32  2  0  0  0  0
 20 22  1  0  0  0  0
 20 24  1  0  0  0  0
 21 23  1  0  0  0  0
 21 24  1  0  0  0  0
 22 30  1  0  0  0  0
 23 30  1  0  0  0  0
 24 33  1  0  0  0  0
 25 31  1  0  0  0  0
 26 31  1  0  0  0  0
 27 28  1  0  0  0  0
 27 29  1  0  0  0  0
 28 30  1  0  0  0  0
  1 35  1  0  0  0  0
  2 36  1  0  0  0  0
  3 37  1  0  0  0  0
  4 38  1  0  0  0  0
  5 39  1  0  0  0  0
  6 40  1  0  0  0  0
  7 41  1  0  0  0  0
  8 42  1  0  0  0  0
  9 43  1  0  0  0  0
 10 44  1  0  0  0  0
 11 45  1  0  0  0  0
 12 46  1  0  0  0  0
 13 47  1  0  0  0  0
 14 48  1  0  0  0  0
 20 49  1  0  0  0  0
 20 50  1  0  0  0  0
 21 51  1  0  0  0  0
 21 52  1  0  0  0  0
 22 53  1  0  0  0  0
 22 54  1  0  0  0  0
 23 55  1  0  0  0  0
 23 56  1  0  0  0  0
 25 57  1  0  0  0  0
 25 58  1  0  0  0  0
 25 59  1  0  0  0  0
 26 60  1  0  0  0  0
 26 61  1  0  0  0  0
 26 62  1  0  0  0  0
 27 63  1  0  0  0  0
 27 64  1  0  0  0  0
 28 65  1  0  0  0  0
 28 66  1  0  0  0  0
 33 67  1  0  0  0  0
M  END
$$$$
