~{N}-methyl-3-(1-tetracyclo[6.6.2.0^{2,7}.0^{9,14}]hexadeca-2,4,6,9,11,13-hexaen
  -OEChem-02121815203D

 44 47  0     0  0  0  0  0  0999 V2000
    1.7527   -6.8588   -2.4992 C   0  0  0  0  0  0  0  0  0  0  0  0
    0.4567   -0.9488    0.2683 C   0  0  0  0  0  0  0  0  0  0  0  0
    3.0004   -6.9031   -1.8637 C   0  0  0  0  0  0  0  0  0  0  0  0
    1.6972   -0.9610    0.9191 C   0  0  0  0  0  0  0  0  0  0  0  0
    0.6877   -6.1669   -1.9235 C   0  0  0  0  0  0  0  0  0  0  0  0
   -0.1946   -2.1427   -0.0393 C   0  0  0  0  0  0  0  0  0  0  0  0
    3.2054   -6.2572   -0.6410 C   0  0  0  0  0  0  0  0  0  0  0  0
    2.3082   -2.1668    1.2747 C   0  0  0  0  0  0  0  0  0  0  0  0
    0.8882   -5.5256   -0.7074 C   0  0  0  0  0  0  0  0  0  0  0  0
    0.4095   -3.3427    0.3148 C   0  0  0  0  0  0  0  0  0  0  0  0
    2.1501   -5.5670   -0.0537 C   0  0  0  0  0  0  0  0  0  0  0  0
    1.6672   -3.3650    0.9775 C   0  0  0  0  0  0  0  0  0  0  0  0
   -0.3242   -5.4043    1.4192 C   0  0  0  0  0  0  0  0  0  0  0  0
    1.0502   -5.4456    2.1525 C   0  0  0  0  0  0  0  0  0  0  0  0
   -0.1690   -4.7234    0.0385 C   0  0  0  0  0  0  0  0  0  0  0  0
    2.1732   -4.7897    1.2771 C   0  0  0  0  0  0  0  0  0  0  0  0
    5.7224   -4.4110    6.4086 C   0  0  0  0  0  0  0  0  0  0  0  0
    3.5099   -4.8457    2.0220 C   0  0  0  0  0  0  0  0  0  0  0  0
    3.3353   -4.4667    3.4905 C   0  0  0  0  0  0  0  0  0  0  0  0
    4.6410   -4.5689    4.2718 C   0  0  0  0  0  0  0  0  0  0  0  0
    4.4763   -4.2380    5.6602 N   0  0  0  0  0  0  0  0  0  0  0  0
    1.6156   -7.3666   -3.4500 H   0  0  0  0  0  0  0  0  0  0  0  0
   -0.0000   -0.0002   -0.0002 H   0  0  0  0  0  0  0  0  0  0  0  0
    3.8193   -7.4460   -2.3283 H   0  0  0  0  0  0  0  0  0  0  0  0
    2.1910   -0.0204    1.1488 H   0  0  0  0  0  0  0  0  0  0  0  0
   -0.2756   -6.1335   -2.4218 H   0  0  0  0  0  0  0  0  0  0  0  0
   -1.1537   -2.1272   -0.5466 H   0  0  0  0  0  0  0  0  0  0  0  0
    4.1833   -6.3065   -0.1741 H   0  0  0  0  0  0  0  0  0  0  0  0
    3.2703   -2.1450    1.7754 H   0  0  0  0  0  0  0  0  0  0  0  0
   -0.7054   -6.4269    1.3039 H   0  0  0  0  0  0  0  0  0  0  0  0
   -1.0505   -4.8618    2.0376 H   0  0  0  0  0  0  0  0  0  0  0  0
    0.9579   -4.9237    3.1143 H   0  0  0  0  0  0  0  0  0  0  0  0
    1.3015   -6.4893    2.3835 H   0  0  0  0  0  0  0  0  0  0  0  0
   -1.1181   -4.6774   -0.5042 H   0  0  0  0  0  0  0  0  0  0  0  0
    6.5087   -3.7846    5.9793 H   0  0  0  0  0  0  0  0  0  0  0  0
    6.0444   -5.4552    6.3706 H   0  0  0  0  0  0  0  0  0  0  0  0
    5.5778   -4.1267    7.4544 H   0  0  0  0  0  0  0  0  0  0  0  0
    3.9140   -5.8574    1.9371 H   0  0  0  0  0  0  0  0  0  0  0  0
    4.2078   -4.1659    1.5279 H   0  0  0  0  0  0  0  0  0  0  0  0
    2.9367   -3.4474    3.5656 H   0  0  0  0  0  0  0  0  0  0  0  0
    2.5994   -5.1361    3.9525 H   0  0  0  0  0  0  0  0  0  0  0  0
    5.4055   -3.9045    3.8569 H   0  0  0  0  0  0  0  0  0  0  0  0
    5.0221   -5.5942    4.2308 H   0  0  0  0  0  0  0  0  0  0  0  0
    3.7595   -4.8368    6.0856 H   0  0  0  0  0  0  0  0  0  0  0  0
  1  3  2  0  0  0  0
  1  5  1  0  0  0  0
  2  4  2  0  0  0  0
  2  6  1  0  0  0  0
  3  7  1  0  0  0  0
  4  8  1  0  0  0  0
  5  9  2  0  0  0  0
  6 10  2  0  0  0  0
  7 11  2  0  0  0  0
  8 12  2  0  0  0  0
  9 11  1  0  0  0  0
  9 15  1  0  0  0  0
 10 12  1  0  0  0  0
 10 15  1  0  0  0  0
 11 16  1  0  0  0  0
 12 16  1  0  0  0  0
 13 14  1  0  0  0  0
 13 15  1  0  0  0  0
 14 16  1  0  0  0  0
 16 18  1  0  0  0  0
 17 21  1  0  0  0  0
 18 19  1  0  0  0  0
 19 20  1  0  0  0  0
 20 21  1  0  0  0  0
  1 22  1  0  0  0  0
  2 23  1  0  0  0  0
  3 24  1  0  0  0  0
  4 25  1  0  0  0  0
  5 26  1  0  0  0  0
  6 27  1  0  0  0  0
  7 28  1  0  0  0  0
  8 29  1  0  0  0  0
 13 30  1  0  0  0  0
 13 31  1  0  0  0  0
 14 32  1  0  0  0  0
 14 33  1  0  0  0  0
 15 34  1  0  0  0  0
 17 35  1  0  0  0  0
 17 36  1  0  0  0  0
 17 37  1  0  0  0  0
 18 38  1  0  0  0  0
 18 39  1  0  0  0  0
 19 40  1  0  0  0  0
 19 41  1  0  0  0  0
 20 42  1  0  0  0  0
 20 43  1  0  0  0  0
 21 44  1  0  0  0  0
M  END
$$$$
