1-[(4-chlorophenyl)-phenyl-methyl]-4-(m-tolylmethyl)piperazine
  -OEChem-02121815203D

 55 58  0     1  0  0  0  0  0999 V2000
    5.0782   -5.9217   -2.8421 C   0  0  0  0  0  0  0  0  0  0  0  0
    5.1171   -4.7738   -3.6336 C   0  0  0  0  0  0  0  0  0  0  0  0
    3.9748   -6.1686   -2.0252 C   0  0  0  0  0  0  0  0  0  0  0  0
    1.1024   -1.6828    5.2536 C   0  0  0  0  0  0  0  0  0  0  0  0
    4.0527   -3.8727   -3.6082 C   0  0  0  0  0  0  0  0  0  0  0  0
    2.9103   -5.2675   -1.9998 C   0  0  0  0  0  0  0  0  0  0  0  0
    2.3769   -1.7476    5.8166 C   0  0  0  0  0  0  0  0  0  0  0  0
    0.9253   -1.1147    3.9920 C   0  0  0  0  0  0  0  0  0  0  0  0
    0.7042   -3.1349   -5.0357 C   0  0  0  0  0  0  0  0  0  0  0  0
    2.0733   -1.2480   -4.4016 C   0  0  0  0  0  0  0  0  0  0  0  0
    0.4498   -2.5357   -6.2694 C   0  0  0  0  0  0  0  0  0  0  0  0
    1.8189   -0.6488   -5.6352 C   0  0  0  0  0  0  0  0  0  0  0  0
    3.2972   -0.6759    3.8566 C   0  0  0  0  0  0  0  0  0  0  0  0
    2.9493   -4.1196   -2.7913 C   0  0  0  0  0  0  0  0  0  0  0  0
    1.5159   -2.4910   -4.1018 C   0  0  0  0  0  0  0  0  0  0  0  0
    3.4743   -1.2441    5.1181 C   0  0  0  0  0  0  0  0  0  0  0  0
    2.0226   -0.6112    3.2936 C   0  0  0  0  0  0  0  0  0  0  0  0
    1.0071   -1.2927   -6.5691 C   0  0  0  0  0  0  0  0  0  0  0  0
    0.9733   -0.4226   -0.2775 C   0  0  0  0  0  0  0  0  0  0  0  0
    2.8769   -1.6606    0.5350 C   0  0  0  0  0  0  0  0  0  0  0  0
    0.7469   -1.4824   -1.3611 C   0  0  0  0  0  0  0  0  0  0  0  0
    2.6493   -2.7208   -0.5481 C   0  0  0  0  0  0  0  0  0  0  0  0
    4.8370   -1.3151    5.7202 C   0  0  0  0  0  0  0  0  0  0  0  0
    1.8318    0.0009    1.9360 C   0  0  0  0  0  0  0  0  0  0  0  0
    1.7938   -3.1419   -2.7630 C   0  0  2  0  0  0  0  0  0  0  0  0
    1.6130   -1.0119    0.9052 N   0  0  0  0  0  0  0  0  0  0  0  0
    2.0113   -2.1302   -1.7310 N   0  0  0  0  0  0  0  0  0  0  0  0
    0.6932   -0.5538   -8.0910 Cl  0  0  0  0  0  0  0  0  0  0  0  0
    5.9065   -6.6239   -2.8630 H   0  0  0  0  0  0  0  0  0  0  0  0
    5.9757   -4.5820   -4.2705 H   0  0  0  0  0  0  0  0  0  0  0  0
    3.9437   -7.0627   -1.4097 H   0  0  0  0  0  0  0  0  0  0  0  0
    0.2479   -2.0750    5.7976 H   0  0  0  0  0  0  0  0  0  0  0  0
    4.0918   -2.9809   -4.2280 H   0  0  0  0  0  0  0  0  0  0  0  0
    2.0548   -5.4680   -1.3603 H   0  0  0  0  0  0  0  0  0  0  0  0
    2.5054   -2.1925    6.8000 H   0  0  0  0  0  0  0  0  0  0  0  0
   -0.0715   -1.0678    3.5614 H   0  0  0  0  0  0  0  0  0  0  0  0
    0.2661   -4.1035   -4.8096 H   0  0  0  0  0  0  0  0  0  0  0  0
    2.7070   -0.7398   -3.6795 H   0  0  0  0  0  0  0  0  0  0  0  0
   -0.1844   -3.0495   -6.9873 H   0  0  0  0  0  0  0  0  0  0  0  0
    2.2599    0.3201   -5.8549 H   0  0  0  0  0  0  0  0  0  0  0  0
    4.1525   -0.2841    3.3111 H   0  0  0  0  0  0  0  0  0  0  0  0
    1.5814    0.3970   -0.6843 H   0  0  0  0  0  0  0  0  0  0  0  0
    0.0001    0.0003   -0.0003 H   0  0  0  0  0  0  0  0  0  0  0  0
    3.3116   -2.1531    1.4133 H   0  0  0  0  0  0  0  0  0  0  0  0
    3.6077   -0.9212    0.1801 H   0  0  0  0  0  0  0  0  0  0  0  0
    0.0163   -2.2224   -1.0069 H   0  0  0  0  0  0  0  0  0  0  0  0
    0.3122   -0.9898   -2.2394 H   0  0  0  0  0  0  0  0  0  0  0  0
    3.6222   -3.1448   -0.8248 H   0  0  0  0  0  0  0  0  0  0  0  0
    2.0399   -3.5394   -0.1414 H   0  0  0  0  0  0  0  0  0  0  0  0
    5.3306   -2.2532    5.4385 H   0  0  0  0  0  0  0  0  0  0  0  0
    5.4641   -0.4781    5.3866 H   0  0  0  0  0  0  0  0  0  0  0  0
    4.7917   -1.2609    6.8158 H   0  0  0  0  0  0  0  0  0  0  0  0
    0.9687    0.6755    1.9345 H   0  0  0  0  0  0  0  0  0  0  0  0
    2.7067    0.5915    1.6446 H   0  0  0  0  0  0  0  0  0  0  0  0
    0.8842   -3.6676   -2.4444 H   0  0  0  0  0  0  0  0  0  0  0  0
  1  2  2  0  0  0  0
  1  3  1  0  0  0  0
  2  5  1  0  0  0  0
  3  6  2  0  0  0  0
  4  7  2  0  0  0  0
  4  8  1  0  0  0  0
  5 14  2  0  0  0  0
  6 14  1  0  0  0  0
  7 16  1  0  0  0  0
  8 17  2  0  0  0  0
  9 11  1  0  0  0  0
  9 15  2  0  0  0  0
 10 12  2  0  0  0  0
 10 15  1  0  0  0  0
 11 18  2  0  0  0  0
 12 18  1  0  0  0  0
 13 16  2  0  0  0  0
 13 17  1  0  0  0  0
 14 25  1  0  0  0  0
 15 25  1  0  0  0  0
 16 23  1  0  0  0  0
 17 24  1  0  0  0  0
 18 28  1  0  0  0  0
 19 21  1  0  0  0  0
 19 26  1  0  0  0  0
 20 22  1  0  0  0  0
 20 26  1  0  0  0  0
 21 27  1  0  0  0  0
 22 27  1  0  0  0  0
 24 26  1  0  0  0  0
 25 27  1  0  0  0  0
  1 29  1  0  0  0  0
  2 30  1  0  0  0  0
  3 31  1  0  0  0  0
  4 32  1  0  0  0  0
  5 33  1  0  0  0  0
  6 34  1  0  0  0  0
  7 35  1  0  0  0  0
  8 36  1  0  0  0  0
  9 37  1  0  0  0  0
 10 38  1  0  0  0  0
 11 39  1  0  0  0  0
 12 40  1  0  0  0  0
 13 41  1  0  0  0  0
 19 42  1  0  0  0  0
 19 43  1  0  0  0  0
 20 44  1  0  0  0  0
 20 45  1  0  0  0  0
 21 46  1  0  0  0  0
 21 47  1  0  0  0  0
 22 48  1  0  0  0  0
 22 49  1  0  0  0  0
 23 50  1  0  0  0  0
 23 51  1  0  0  0  0
 23 52  1  0  0  0  0
 24 53  1  0  0  0  0
 24 54  1  0  0  0  0
 25 55  1  0  0  0  0
M  END
$$$$
