2-(2,3-dimethylanilino)benzoic acid
  -OEChem-02121815203D

 33 34  0     0  0  0  0  0  0999 V2000
    3.1698   -0.6471    0.1607 C   0  0  0  0  0  0  0  0  0  0  0  0
    3.3189    0.3874    1.0844 C   0  0  0  0  0  0  0  0  0  0  0  0
    0.1183    1.9259    5.4821 C   0  0  0  0  0  0  0  0  0  0  0  0
    2.5424   -1.8344    0.5384 C   0  0  0  0  0  0  0  0  0  0  0  0
    0.2819    1.7143    6.8511 C   0  0  0  0  0  0  0  0  0  0  0  0
    2.8408    0.2347    2.3858 C   0  0  0  0  0  0  0  0  0  0  0  0
    0.6048    0.9906    4.5687 C   0  0  0  0  0  0  0  0  0  0  0  0
    2.0643   -1.9870    1.8398 C   0  0  0  0  0  0  0  0  0  0  0  0
    0.9322    0.5674    7.3066 C   0  0  0  0  0  0  0  0  0  0  0  0
    1.4188   -0.3678    6.3933 C   0  0  0  0  0  0  0  0  0  0  0  0
    2.2134   -0.9525    2.7636 C   0  0  0  0  0  0  0  0  0  0  0  0
    1.2551   -0.1562    5.0243 C   0  0  0  0  0  0  0  0  0  0  0  0
    1.4140   -3.2399    2.2035 C   0  0  0  0  0  0  0  0  0  0  0  0
    1.0941    0.3654    8.7778 C   0  0  0  0  0  0  0  0  0  0  0  0
    2.1160   -1.5968    6.8863 C   0  0  0  0  0  0  0  0  0  0  0  0
    1.7380   -1.0876    4.0870 N   0  0  0  0  0  0  0  0  0  0  0  0
    0.5237   -3.3618    3.0484 O   0  0  0  0  0  0  0  0  0  0  0  0
    1.8975   -4.2973    1.4980 O   0  0  0  0  0  0  0  0  0  0  0  0
    3.5413   -0.5285   -0.8529 H   0  0  0  0  0  0  0  0  0  0  0  0
    3.8081    1.3114    0.7902 H   0  0  0  0  0  0  0  0  0  0  0  0
   -0.3885    2.8186    5.1274 H   0  0  0  0  0  0  0  0  0  0  0  0
    2.4340   -2.6331   -0.1908 H   0  0  0  0  0  0  0  0  0  0  0  0
   -0.1009    2.4491    7.5545 H   0  0  0  0  0  0  0  0  0  0  0  0
    2.9628    1.0480    3.0966 H   0  0  0  0  0  0  0  0  0  0  0  0
    0.4709    1.1664    3.5043 H   0  0  0  0  0  0  0  0  0  0  0  0
    0.2360   -0.1837    9.1822 H   0  0  0  0  0  0  0  0  0  0  0  0
    2.0076   -0.1988    9.0020 H   0  0  0  0  0  0  0  0  0  0  0  0
    1.1744    1.3252    9.3029 H   0  0  0  0  0  0  0  0  0  0  0  0
    1.3924   -2.4041    7.0412 H   0  0  0  0  0  0  0  0  0  0  0  0
    2.8722   -1.9347    6.1687 H   0  0  0  0  0  0  0  0  0  0  0  0
    2.6343   -1.4022    7.8322 H   0  0  0  0  0  0  0  0  0  0  0  0
    1.7490   -2.0444    4.4249 H   0  0  0  0  0  0  0  0  0  0  0  0
    1.4654   -5.1456    1.7349 H   0  0  0  0  0  0  0  0  0  0  0  0
  1  2  1  0  0  0  0
  1  4  2  0  0  0  0
  2  6  2  0  0  0  0
  3  5  1  0  0  0  0
  3  7  2  0  0  0  0
  4  8  1  0  0  0  0
  5  9  2  0  0  0  0
  6 11  1  0  0  0  0
  7 12  1  0  0  0  0
  8 11  2  0  0  0  0
  8 13  1  0  0  0  0
  9 10  1  0  0  0  0
  9 14  1  0  0  0  0
 10 12  2  0  0  0  0
 10 15  1  0  0  0  0
 11 16  1  0  0  0  0
 12 16  1  0  0  0  0
 13 17  2  0  0  0  0
 13 18  1  0  0  0  0
  1 19  1  0  0  0  0
  2 20  1  0  0  0  0
  3 21  1  0  0  0  0
  4 22  1  0  0  0  0
  5 23  1  0  0  0  0
  6 24  1  0  0  0  0
  7 25  1  0  0  0  0
 14 26  1  0  0  0  0
 14 27  1  0  0  0  0
 14 28  1  0  0  0  0
 15 29  1  0  0  0  0
 15 30  1  0  0  0  0
 15 31  1  0  0  0  0
 16 32  1  0  0  0  0
 18 33  1  0  0  0  0
M  END
$$$$
