(4~{R},4~{a}~{S},7~{a}~{R},12~{b}~{S})-3-allyl-4~{a},9-dihydroxy-2,4,5,6,7~{a},1
  -OEChem-02121815203D

 45 49  0     1  0  0  0  0  0999 V2000
   -0.5683   -0.6377   -0.6717 C   0  0  0  0  0  0  0  0  0  0  0  0
   -1.0144   -0.1181   -1.9067 C   0  0  0  0  0  0  0  0  0  0  0  0
   -0.8353   -1.9630   -0.3290 C   0  0  0  0  0  0  0  0  0  0  0  0
   -1.5600   -2.7064   -1.2410 C   0  0  0  0  0  0  0  0  0  0  0  0
   -1.9391   -2.2288   -2.4792 C   0  0  0  0  0  0  0  0  0  0  0  0
   -1.6989   -0.9207   -2.8312 C   0  0  0  0  0  0  0  0  0  0  0  0
   -0.8158   -4.9299   -3.2220 C   0  0  0  0  0  0  0  0  0  0  0  0
   -4.0347   -4.0206    4.6977 C   0  0  0  0  0  0  0  0  0  0  0  0
   -3.0200   -4.5606    4.0132 C   0  0  0  0  0  0  0  0  0  0  0  0
   -0.2994   -2.6481    0.9010 C   0  0  0  0  0  0  0  0  0  0  0  0
    0.1270   -5.7503   -2.3709 C   0  0  0  0  0  0  0  0  0  0  0  0
    0.3717   -5.0741   -1.0228 C   0  0  0  0  0  0  0  0  0  0  0  0
   -3.3554   -4.1503   -0.3487 C   0  0  0  0  0  0  0  0  0  0  0  0
   -3.2461   -3.6551    1.1055 C   0  0  0  0  0  0  0  0  0  0  0  0
   -2.1187   -4.4480   -2.5768 C   0  0  1  0  0  0  0  0  0  0  0  0
   -0.8061   -4.1203    1.1019 C   0  0  2  0  0  0  0  0  0  0  0  0
   -1.9922   -4.1229   -1.0797 C   0  0  1  0  0  0  0  0  0  0  0  0
   -0.9493   -4.8911   -0.2544 C   0  0  1  0  0  0  0  0  0  0  0  0
   -2.0472   -3.7686    3.2025 C   0  0  0  0  0  0  0  0  0  0  0  0
   -2.1026   -4.2312    1.8202 N   0  0  1  0  0  0  0  0  0  0  0  0
   -0.5700   -4.7220   -4.4112 O   0  0  0  0  0  0  0  0  0  0  0  0
   -2.4992   -3.2118   -3.2617 O   0  0  0  0  0  0  0  0  0  0  0  0
   -2.0767   -0.4266   -4.0352 O   0  0  0  0  0  0  0  0  0  0  0  0
   -1.4410   -6.2144    0.0153 O   0  0  0  0  0  0  0  0  0  0  0  0
    0.0007   -0.0003   -0.0003 H   0  0  0  0  0  0  0  0  0  0  0  0
   -0.7924    0.9180   -2.1520 H   0  0  0  0  0  0  0  0  0  0  0  0
   -4.7044   -4.6497    5.2738 H   0  0  0  0  0  0  0  0  0  0  0  0
   -4.2155   -2.9513    4.6956 H   0  0  0  0  0  0  0  0  0  0  0  0
   -2.8804   -5.6380    4.0547 H   0  0  0  0  0  0  0  0  0  0  0  0
    0.7933   -2.6868    0.7998 H   0  0  0  0  0  0  0  0  0  0  0  0
   -0.5027   -2.0319    1.7822 H   0  0  0  0  0  0  0  0  0  0  0  0
   -0.2968   -6.7530   -2.2549 H   0  0  0  0  0  0  0  0  0  0  0  0
    1.0798   -5.8507   -2.9025 H   0  0  0  0  0  0  0  0  0  0  0  0
    1.0539   -5.7055   -0.4399 H   0  0  0  0  0  0  0  0  0  0  0  0
    0.8817   -4.1189   -1.1875 H   0  0  0  0  0  0  0  0  0  0  0  0
   -3.7535   -5.1733   -0.3531 H   0  0  0  0  0  0  0  0  0  0  0  0
   -4.1010   -3.5356   -0.8701 H   0  0  0  0  0  0  0  0  0  0  0  0
   -3.2015   -2.5589    1.1198 H   0  0  0  0  0  0  0  0  0  0  0  0
   -4.1753   -3.9292    1.6206 H   0  0  0  0  0  0  0  0  0  0  0  0
   -2.8836   -5.2091   -2.7681 H   0  0  0  0  0  0  0  0  0  0  0  0
   -0.0660   -4.6545    1.7131 H   0  0  0  0  0  0  0  0  0  0  0  0
   -1.0340   -3.9218    3.5865 H   0  0  0  0  0  0  0  0  0  0  0  0
   -2.2631   -2.6957    3.2241 H   0  0  0  0  0  0  0  0  0  0  0  0
   -1.8062    0.5034   -4.1236 H   0  0  0  0  0  0  0  0  0  0  0  0
   -0.7579   -6.6464    0.5448 H   0  0  0  0  0  0  0  0  0  0  0  0
  1  2  1  0  0  0  0
  1  3  2  0  0  0  0
  2  6  2  0  0  0  0
  3  4  1  0  0  0  0
  3 10  1  0  0  0  0
  4  5  2  0  0  0  0
  4 17  1  0  0  0  0
  5  6  1  0  0  0  0
  5 22  1  0  0  0  0
  6 23  1  0  0  0  0
  7 11  1  0  0  0  0
  7 15  1  0  0  0  0
  7 21  2  0  0  0  0
  8  9  2  0  0  0  0
  9 19  1  0  0  0  0
 10 16  1  0  0  0  0
 11 12  1  0  0  0  0
 12 18  1  0  0  0  0
 13 14  1  0  0  0  0
 13 17  1  0  0  0  0
 14 20  1  0  0  0  0
 15 17  1  0  0  0  0
 15 22  1  0  0  0  0
 16 18  1  0  0  0  0
 16 20  1  0  0  0  0
 17 18  1  0  0  0  0
 18 24  1  0  0  0  0
 19 20  1  0  0  0  0
  1 25  1  0  0  0  0
  2 26  1  0  0  0  0
  8 27  1  0  0  0  0
  8 28  1  0  0  0  0
  9 29  1  0  0  0  0
 10 30  1  0  0  0  0
 10 31  1  0  0  0  0
 11 32  1  0  0  0  0
 11 33  1  0  0  0  0
 12 34  1  0  0  0  0
 12 35  1  0  0  0  0
 13 36  1  0  0  0  0
 13 37  1  0  0  0  0
 14 38  1  0  0  0  0
 14 39  1  0  0  0  0
 15 40  1  0  0  0  0
 16 41  1  0  0  0  0
 19 42  1  0  0  0  0
 19 43  1  0  0  0  0
 23 44  1  0  0  0  0
 24 45  1  0  0  0  0
M  END
$$$$
