2-[3-(trifluoromethyl)anilino]pyridine-3-carboxylic acid
  -OEChem-02121815203D

 29 30  0     0  0  0  0  0  0999 V2000
    1.1514   -1.7920    0.3184 C   0  0  0  0  0  0  0  0  0  0  0  0
    5.3915   -1.6415    6.5505 C   0  0  0  0  0  0  0  0  0  0  0  0
    6.2534   -2.0790    5.5509 C   0  0  0  0  0  0  0  0  0  0  0  0
    0.8063   -0.4626    0.5617 C   0  0  0  0  0  0  0  0  0  0  0  0
    2.1873   -2.3867    1.0387 C   0  0  0  0  0  0  0  0  0  0  0  0
    2.5333   -0.3226    2.2455 C   0  0  0  0  0  0  0  0  0  0  0  0
    4.0641   -1.4291    6.2151 C   0  0  0  0  0  0  0  0  0  0  0  0
    5.7683   -2.2879    4.2647 C   0  0  0  0  0  0  0  0  0  0  0  0
    1.4972    0.2721    1.5253 C   0  0  0  0  0  0  0  0  0  0  0  0
    2.8783   -1.6520    2.0022 C   0  0  0  0  0  0  0  0  0  0  0  0
    4.4239   -2.0468    4.0317 C   0  0  0  0  0  0  0  0  0  0  0  0
    6.6801   -2.7413    3.2234 C   0  0  0  0  0  0  0  0  0  0  0  0
    1.1285    1.6936    1.7847 C   0  0  0  0  0  0  0  0  0  0  0  0
    3.5562   -1.6212    4.9770 N   0  0  0  0  0  0  0  0  0  0  0  0
    3.9255   -2.2535    2.7307 N   0  0  0  0  0  0  0  0  0  0  0  0
    6.5760   -2.4830    2.0211 O   0  0  0  0  0  0  0  0  0  0  0  0
    7.6940   -3.5021    3.7176 O   0  0  0  0  0  0  0  0  0  0  0  0
    0.0988    2.1429    1.0075 F   0  0  0  0  0  0  0  0  0  0  0  0
    0.7331    1.9301    3.0706 F   0  0  0  0  0  0  0  0  0  0  0  0
    2.1625    2.5547    1.5555 F   0  0  0  0  0  0  0  0  0  0  0  0
    0.6132   -2.3641   -0.4319 H   0  0  0  0  0  0  0  0  0  0  0  0
    5.7482   -1.4705    7.5597 H   0  0  0  0  0  0  0  0  0  0  0  0
    7.3001   -2.2533    5.7860 H   0  0  0  0  0  0  0  0  0  0  0  0
   -0.0024   -0.0072   -0.0043 H   0  0  0  0  0  0  0  0  0  0  0  0
    2.4478   -3.4234    0.8412 H   0  0  0  0  0  0  0  0  0  0  0  0
    3.0708    0.2517    2.9967 H   0  0  0  0  0  0  0  0  0  0  0  0
    3.3514   -1.0877    6.9586 H   0  0  0  0  0  0  0  0  0  0  0  0
    4.4164   -2.9776    2.2144 H   0  0  0  0  0  0  0  0  0  0  0  0
    8.3146   -3.8119    3.0238 H   0  0  0  0  0  0  0  0  0  0  0  0
  1  4  1  0  0  0  0
  1  5  2  0  0  0  0
  2  3  2  0  0  0  0
  2  7  1  0  0  0  0
  3  8  1  0  0  0  0
  4  9  2  0  0  0  0
  5 10  1  0  0  0  0
  6  9  1  0  0  0  0
  6 10  2  0  0  0  0
  7 14  2  0  0  0  0
  8 11  2  0  0  0  0
  8 12  1  0  0  0  0
  9 13  1  0  0  0  0
 10 15  1  0  0  0  0
 11 14  1  0  0  0  0
 11 15  1  0  0  0  0
 12 16  2  0  0  0  0
 12 17  1  0  0  0  0
 13 18  1  0  0  0  0
 13 19  1  0  0  0  0
 13 20  1  0  0  0  0
  1 21  1  0  0  0  0
  2 22  1  0  0  0  0
  3 23  1  0  0  0  0
  4 24  1  0  0  0  0
  5 25  1  0  0  0  0
  6 26  1  0  0  0  0
  7 27  1  0  0  0  0
 15 28  1  0  0  0  0
 17 29  1  0  0  0  0
M  END
$$$$
