1-[(~{E})-(5-nitro-2-furyl)methyleneamino]imidazolidine-2,4-dione
  -OEChem-02121815203D

 23 24  0     0  0  0  0  0  0999 V2000
    0.5087   -4.7965   -2.3824 C   0  0  0  0  0  0  0  0  0  0  0  0
    1.1865   -5.6520   -3.2835 C   0  0  0  0  0  0  0  0  0  0  0  0
    1.1645   -3.5886   -2.4360 C   0  0  0  0  0  0  0  0  0  0  0  0
    2.2079   -4.9058   -3.8238 C   0  0  0  0  0  0  0  0  0  0  0  0
    0.2684    1.2086    0.2296 C   0  0  0  0  0  0  0  0  0  0  0  0
   -1.0660   -0.5978    0.5985 C   0  0  0  0  0  0  0  0  0  0  0  0
    0.9274   -2.3170   -1.7299 C   0  0  0  0  0  0  0  0  0  0  0  0
    0.8152    0.1099   -0.6620 C   0  0  0  0  0  0  0  0  0  0  0  0
   -0.0371   -2.1739   -0.8802 N   0  0  0  0  0  0  0  0  0  0  0  0
   -0.8148    0.7207    0.9232 N   0  0  0  0  0  0  0  0  0  0  0  0
   -0.0973   -0.9493   -0.3385 N   0  0  0  0  0  0  0  0  0  0  0  0
    3.2124   -5.1708   -4.7564 N   0  3  0  0  0  0  0  0  0  0  0  0
    3.2961   -6.3181   -5.2863 O   0  5  0  0  0  0  0  0  0  0  0  0
    0.7355    2.3367    0.2998 O   0  0  0  0  0  0  0  0  0  0  0  0
   -1.9597   -1.3007    1.0497 O   0  0  0  0  0  0  0  0  0  0  0  0
    4.0383   -4.2634   -5.0706 O   0  0  0  0  0  0  0  0  0  0  0  0
    2.2013   -3.6468   -3.3124 O   0  0  0  0  0  0  0  0  0  0  0  0
   -0.3505   -5.0351   -1.7717 H   0  0  0  0  0  0  0  0  0  0  0  0
    0.9555   -6.6837   -3.5081 H   0  0  0  0  0  0  0  0  0  0  0  0
    1.6196   -1.4866   -1.9653 H   0  0  0  0  0  0  0  0  0  0  0  0
    0.7278    0.3783   -1.7166 H   0  0  0  0  0  0  0  0  0  0  0  0
    1.8321   -0.1626   -0.3730 H   0  0  0  0  0  0  0  0  0  0  0  0
   -1.3587    1.2596    1.5873 H   0  0  0  0  0  0  0  0  0  0  0  0
  1  2  1  0  0  0  0
  1  3  2  0  0  0  0
  2  4  2  0  0  0  0
  3  7  1  0  0  0  0
  3 17  1  0  0  0  0
  4 12  1  0  0  0  0
  4 17  1  0  0  0  0
  5  8  1  0  0  0  0
  5 10  1  0  0  0  0
  5 14  2  0  0  0  0
  6 10  1  0  0  0  0
  6 11  1  0  0  0  0
  6 15  2  0  0  0  0
  7  9  2  0  0  0  0
  8 11  1  0  0  0  0
  9 11  1  0  0  0  0
 12 13  1  0  0  0  0
 12 16  2  0  0  0  0
  1 18  1  0  0  0  0
  2 19  1  0  0  0  0
  7 20  1  0  0  0  0
  8 21  1  0  0  0  0
  8 22  1  0  0  0  0
 10 23  1  0  0  0  0
M  CHG  2  12   1  13  -1
M  END
$$$$
