1-cyclopropyl-7-(3,5-dimethylpiperazin-1-yl)-5,6,8-trifluoro-4-oxo-quinoline-3-c
  -OEChem-02121815203D

 48 51  0     1  0  0  0  0  0999 V2000
    4.2154    0.4473   -3.6945 C   0  0  0  0  0  0  0  0  0  0  0  0
    3.6001   -0.8179   -3.5473 C   0  0  0  0  0  0  0  0  0  0  0  0
    2.1054    0.2001   -1.9005 C   0  0  0  0  0  0  0  0  0  0  0  0
    3.7840    1.5609   -2.9610 C   0  0  0  0  0  0  0  0  0  0  0  0
    2.5359   -0.9113   -2.6326 C   0  0  0  0  0  0  0  0  0  0  0  0
    2.7279    1.4328   -2.0645 C   0  0  0  0  0  0  0  0  0  0  0  0
    5.1223   -1.7321   -5.1845 C   0  0  0  0  0  0  0  0  0  0  0  0
    5.3467    0.6145   -4.6455 C   0  0  0  0  0  0  0  0  0  0  0  0
    5.7736   -0.5864   -5.4011 C   0  0  0  0  0  0  0  0  0  0  0  0
    6.8693   -0.5831   -6.3720 C   0  0  0  0  0  0  0  0  0  0  0  0
    2.2488   -3.6439   -4.9910 C   0  0  0  0  0  0  0  0  0  0  0  0
    3.5750   -4.2566   -5.3320 C   0  0  0  0  0  0  0  0  0  0  0  0
   -0.2580   -0.3631   -1.5246 C   0  0  0  0  0  0  0  0  0  0  0  0
    0.9948    0.9248    0.1941 C   0  0  0  0  0  0  0  0  0  0  0  0
    3.4739   -3.2657   -4.2064 C   0  0  0  0  0  0  0  0  0  0  0  0
   -1.1180   -0.9569   -0.4001 C   0  0  2  0  0  0  0  0  0  0  0  0
    0.0957    0.2941    1.2673 C   0  0  1  0  0  0  0  0  0  0  0  0
   -2.5180   -1.2896   -0.9133 C   0  0  0  0  0  0  0  0  0  0  0  0
   -0.0626    1.2386    2.4574 C   0  0  0  0  0  0  0  0  0  0  0  0
   -1.2288   -0.0156    0.7193 N   0  0  0  0  0  0  0  0  0  0  0  0
    4.0682   -1.9152   -4.3082 N   0  0  0  0  0  0  0  0  0  0  0  0
    1.0434    0.0715   -0.9984 N   0  0  0  0  0  0  0  0  0  0  0  0
    5.9075    1.6913   -4.8045 O   0  0  0  0  0  0  0  0  0  0  0  0
    6.9316   -1.3121   -7.3461 O   0  0  0  0  0  0  0  0  0  0  0  0
    7.7852    0.3434   -6.0192 O   0  0  0  0  0  0  0  0  0  0  0  0
    4.3671    2.7600   -3.0992 F   0  0  0  0  0  0  0  0  0  0  0  0
    1.9000   -2.0767   -2.4358 F   0  0  0  0  0  0  0  0  0  0  0  0
    2.3196    2.5013   -1.3653 F   0  0  0  0  0  0  0  0  0  0  0  0
    5.4039   -2.6354   -5.7172 H   0  0  0  0  0  0  0  0  0  0  0  0
    1.8358   -2.9207   -5.6836 H   0  0  0  0  0  0  0  0  0  0  0  0
    1.5123   -4.2738   -4.5074 H   0  0  0  0  0  0  0  0  0  0  0  0
    3.7303   -5.2974   -5.0758 H   0  0  0  0  0  0  0  0  0  0  0  0
    4.0504   -3.9444   -6.2537 H   0  0  0  0  0  0  0  0  0  0  0  0
   -0.1140   -1.1221   -2.3083 H   0  0  0  0  0  0  0  0  0  0  0  0
   -0.7691    0.4929   -1.9936 H   0  0  0  0  0  0  0  0  0  0  0  0
    0.6238    1.9243   -0.0839 H   0  0  0  0  0  0  0  0  0  0  0  0
    2.0071    1.0588    0.6049 H   0  0  0  0  0  0  0  0  0  0  0  0
    3.5500   -3.6610   -3.1995 H   0  0  0  0  0  0  0  0  0  0  0  0
   -0.6596   -1.8867   -0.0406 H   0  0  0  0  0  0  0  0  0  0  0  0
    0.5566   -0.6328    1.6308 H   0  0  0  0  0  0  0  0  0  0  0  0
   -3.0019   -0.3853   -1.2786 H   0  0  0  0  0  0  0  0  0  0  0  0
   -3.1155   -1.7131   -0.1076 H   0  0  0  0  0  0  0  0  0  0  0  0
   -2.4515   -2.0116   -1.7256 H   0  0  0  0  0  0  0  0  0  0  0  0
   -0.5188    2.1716    2.1303 H   0  0  0  0  0  0  0  0  0  0  0  0
    0.9127    1.4518    2.8919 H   0  0  0  0  0  0  0  0  0  0  0  0
   -0.6966    0.7774    3.2130 H   0  0  0  0  0  0  0  0  0  0  0  0
   -1.6753    0.8441    0.3993 H   0  0  0  0  0  0  0  0  0  0  0  0
    8.5373    0.3750   -6.6482 H   0  0  0  0  0  0  0  0  0  0  0  0
  1  2  1  0  0  0  0
  1  4  2  0  0  0  0
  1  8  1  0  0  0  0
  2  5  2  0  0  0  0
  2 21  1  0  0  0  0
  3  5  1  0  0  0  0
  3  6  2  0  0  0  0
  3 22  1  0  0  0  0
  4  6  1  0  0  0  0
  4 26  1  0  0  0  0
  5 27  1  0  0  0  0
  6 28  1  0  0  0  0
  7  9  2  0  0  0  0
  7 21  1  0  0  0  0
  8  9  1  0  0  0  0
  8 23  2  0  0  0  0
  9 10  1  0  0  0  0
 10 24  2  0  0  0  0
 10 25  1  0  0  0  0
 11 12  1  0  0  0  0
 11 15  1  0  0  0  0
 12 15  1  0  0  0  0
 13 16  1  0  0  0  0
 13 22  1  0  0  0  0
 14 17  1  0  0  0  0
 14 22  1  0  0  0  0
 15 21  1  0  0  0  0
 16 18  1  0  0  0  0
 16 20  1  0  0  0  0
 17 19  1  0  0  0  0
 17 20  1  0  0  0  0
  7 29  1  0  0  0  0
 11 30  1  0  0  0  0
 11 31  1  0  0  0  0
 12 32  1  0  0  0  0
 12 33  1  0  0  0  0
 13 34  1  0  0  0  0
 13 35  1  0  0  0  0
 14 36  1  0  0  0  0
 14 37  1  0  0  0  0
 15 38  1  0  0  0  0
 16 39  1  0  0  0  0
 17 40  1  0  0  0  0
 18 41  1  0  0  0  0
 18 42  1  0  0  0  0
 18 43  1  0  0  0  0
 19 44  1  0  0  0  0
 19 45  1  0  0  0  0
 19 46  1  0  0  0  0
 20 47  1  0  0  0  0
 25 48  1  0  0  0  0
M  END
$$$$
