(4~{S},4~{a}~{R},5~{S},5~{a}~{R},6~{S},12~{a}~{S})-4-(dimethylamino)-3,5,6,10,12
  -OEChem-02121815213D

 57 60  0     1  0  0  0  0  0999 V2000
    0.2429   -0.9326   -0.5011 C   0  0  0  0  0  0  0  0  0  0  0  0
   -0.0760   -2.1515    0.1036 C   0  0  0  0  0  0  0  0  0  0  0  0
    0.8643   -0.9129   -1.7419 C   0  0  0  0  0  0  0  0  0  0  0  0
    0.8408   -3.3393   -1.7773 C   0  0  0  0  0  0  0  0  0  0  0  0
    0.2284   -3.3819   -0.5099 C   0  0  0  0  0  0  0  0  0  0  0  0
    1.1591   -2.1120   -2.3830 C   0  0  0  0  0  0  0  0  0  0  0  0
    1.1460   -4.5790   -2.5311 C   0  0  0  0  0  0  0  0  0  0  0  0
   -1.3089   -9.7821   -0.8897 C   0  0  0  0  0  0  0  0  0  0  0  0
    0.9156   -5.8775   -1.8298 C   0  0  0  0  0  0  0  0  0  0  0  0
   -0.4613  -10.2370    0.0497 C   0  0  0  0  0  0  0  0  0  0  0  0
    0.7731   -7.0069   -2.5474 C   0  0  0  0  0  0  0  0  0  0  0  0
   -0.8444   -8.7859   -1.9061 C   0  0  0  0  0  0  0  0  0  0  0  0
   -2.6896  -10.2915   -0.9114 C   0  0  0  0  0  0  0  0  0  0  0  0
    0.8874   -5.8221   -0.3189 C   0  0  2  0  0  0  0  0  0  0  0  0
    0.9677   -9.7659    0.2021 C   0  0  2  0  0  0  0  0  0  0  0  0
    1.2176   -8.3913   -0.4822 C   0  0  2  0  0  0  0  0  0  0  0  0
    0.6570   -7.2082    0.3487 C   0  0  1  0  0  0  0  0  0  0  0  0
   -0.1321   -4.7194    0.1384 C   0  0  1  0  0  0  0  0  0  0  0  0
    0.6283   -8.3651   -1.9048 C   0  0  2  0  0  0  0  0  0  0  0  0
   -0.2228   -4.6368    1.6753 C   0  0  0  0  0  0  0  0  0  0  0  0
    1.4065  -12.1259    0.1030 C   0  0  0  0  0  0  0  0  0  0  0  0
    3.2324  -10.5678    0.2085 C   0  0  0  0  0  0  0  0  0  0  0  0
   -3.6317   -9.3067   -0.7491 N   0  0  0  0  0  0  0  0  0  0  0  0
    1.8826  -10.8046   -0.2942 N   0  0  0  0  0  0  0  0  0  0  0  0
    1.5903   -4.5129   -3.6713 O   0  0  0  0  0  0  0  0  0  0  0  0
   -1.6422   -8.3683   -2.7468 O   0  0  0  0  0  0  0  0  0  0  0  0
   -2.9292  -11.4839   -1.0622 O   0  0  0  0  0  0  0  0  0  0  0  0
    1.7660   -2.0169   -3.6017 O   0  0  0  0  0  0  0  0  0  0  0  0
   -0.8682  -11.1733    0.9876 O   0  0  0  0  0  0  0  0  0  0  0  0
    0.7714   -6.9973   -3.9320 O   0  0  0  0  0  0  0  0  0  0  0  0
    1.3354   -7.1857    1.6108 O   0  0  0  0  0  0  0  0  0  0  0  0
   -1.4438   -5.0456   -0.3445 O   0  0  0  0  0  0  0  0  0  0  0  0
    1.2778   -9.3397   -2.7203 O   0  0  0  0  0  0  0  0  0  0  0  0
    0.0001   -0.0000    0.0002 H   0  0  0  0  0  0  0  0  0  0  0  0
   -0.5752   -2.1062    1.0664 H   0  0  0  0  0  0  0  0  0  0  0  0
    1.1092    0.0384   -2.2062 H   0  0  0  0  0  0  0  0  0  0  0  0
    1.8879   -5.4844   -0.0031 H   0  0  0  0  0  0  0  0  0  0  0  0
    1.1836   -9.6611    1.2773 H   0  0  0  0  0  0  0  0  0  0  0  0
    2.3096   -8.2589   -0.5390 H   0  0  0  0  0  0  0  0  0  0  0  0
   -0.4080   -7.3626    0.5490 H   0  0  0  0  0  0  0  0  0  0  0  0
   -0.4802   -5.6136    2.0683 H   0  0  0  0  0  0  0  0  0  0  0  0
   -0.9869   -3.9177    1.9472 H   0  0  0  0  0  0  0  0  0  0  0  0
    0.7362   -4.3221    2.0707 H   0  0  0  0  0  0  0  0  0  0  0  0
    2.0872  -12.8973   -0.2664 H   0  0  0  0  0  0  0  0  0  0  0  0
    0.4105  -12.3085   -0.3096 H   0  0  0  0  0  0  0  0  0  0  0  0
    1.3527  -12.1964    1.1927 H   0  0  0  0  0  0  0  0  0  0  0  0
    3.9118  -11.3403   -0.1609 H   0  0  0  0  0  0  0  0  0  0  0  0
    3.2375  -10.5880    1.3017 H   0  0  0  0  0  0  0  0  0  0  0  0
    3.5943   -9.5917   -0.1256 H   0  0  0  0  0  0  0  0  0  0  0  0
   -3.3173   -8.3490   -0.6323 H   0  0  0  0  0  0  0  0  0  0  0  0
   -4.6295   -9.4946   -0.7407 H   0  0  0  0  0  0  0  0  0  0  0  0
    1.9278   -2.9017   -3.9626 H   0  0  0  0  0  0  0  0  0  0  0  0
   -0.1357  -11.3787    1.5737 H   0  0  0  0  0  0  0  0  0  0  0  0
    0.8831   -6.0966   -4.2472 H   0  0  0  0  0  0  0  0  0  0  0  0
    2.2687   -7.0270    1.4111 H   0  0  0  0  0  0  0  0  0  0  0  0
   -2.0196   -4.3231   -0.0592 H   0  0  0  0  0  0  0  0  0  0  0  0
    2.2083   -9.0750   -2.7729 H   0  0  0  0  0  0  0  0  0  0  0  0
  1  2  2  0  0  0  0
  1  3  1  0  0  0  0
  2  5  1  0  0  0  0
  3  6  2  0  0  0  0
  4  5  2  0  0  0  0
  4  6  1  0  0  0  0
  4  7  1  0  0  0  0
  5 18  1  0  0  0  0
  6 28  1  0  0  0  0
  7  9  1  0  0  0  0
  7 25  2  0  0  0  0
  8 10  2  0  0  0  0
  8 12  1  0  0  0  0
  8 13  1  0  0  0  0
  9 11  2  0  0  0  0
  9 14  1  0  0  0  0
 10 15  1  0  0  0  0
 10 29  1  0  0  0  0
 11 19  1  0  0  0  0
 11 30  1  0  0  0  0
 12 19  1  0  0  0  0
 12 26  2  0  0  0  0
 13 23  1  0  0  0  0
 13 27  2  0  0  0  0
 14 17  1  0  0  0  0
 14 18  1  0  0  0  0
 15 16  1  0  0  0  0
 15 24  1  0  0  0  0
 16 17  1  0  0  0  0
 16 19  1  0  0  0  0
 17 31  1  0  0  0  0
 18 20  1  0  0  0  0
 18 32  1  0  0  0  0
 19 33  1  0  0  0  0
 21 24  1  0  0  0  0
 22 24  1  0  0  0  0
  1 34  1  0  0  0  0
  2 35  1  0  0  0  0
  3 36  1  0  0  0  0
 14 37  1  0  0  0  0
 15 38  1  0  0  0  0
 16 39  1  0  0  0  0
 17 40  1  0  0  0  0
 20 41  1  0  0  0  0
 20 42  1  0  0  0  0
 20 43  1  0  0  0  0
 21 44  1  0  0  0  0
 21 45  1  0  0  0  0
 21 46  1  0  0  0  0
 22 47  1  0  0  0  0
 22 48  1  0  0  0  0
 22 49  1  0  0  0  0
 23 50  1  0  0  0  0
 23 51  1  0  0  0  0
 28 52  1  0  0  0  0
 29 53  1  0  0  0  0
 30 54  1  0  0  0  0
 31 55  1  0  0  0  0
 32 56  1  0  0  0  0
 33 57  1  0  0  0  0
M  END
$$$$
