1-[(3,4-dimethoxyphenyl)methyl]-6,7-dimethoxy-isoquinoline
  -OEChem-02121815213D

 46 48  0     0  0  0  0  0  0999 V2000
   -2.9853   -0.0717    5.2684 C   0  0  0  0  0  0  0  0  0  0  0  0
   -3.2247   -1.3855    5.6711 C   0  0  0  0  0  0  0  0  0  0  0  0
    0.9287    3.0838    4.2034 C   0  0  0  0  0  0  0  0  0  0  0  0
    1.7434    1.9019    2.2157 C   0  0  0  0  0  0  0  0  0  0  0  0
   -0.8472    0.9882    1.7157 C   0  0  0  0  0  0  0  0  0  0  0  0
   -3.8161   -0.5967    3.0613 C   0  0  0  0  0  0  0  0  0  0  0  0
   -0.1488    3.4025    5.0156 C   0  0  0  0  0  0  0  0  0  0  0  0
    0.7051    2.2697    3.0869 C   0  0  0  0  0  0  0  0  0  0  0  0
   -0.6020    1.8063    2.8310 C   0  0  0  0  0  0  0  0  0  0  0  0
   -3.2810    0.3228    3.9635 C   0  0  0  0  0  0  0  0  0  0  0  0
   -3.7599   -2.3049    4.7689 C   0  0  0  0  0  0  0  0  0  0  0  0
    1.4882    1.0885    1.1102 C   0  0  0  0  0  0  0  0  0  0  0  0
    0.1958    0.6327    0.8608 C   0  0  0  0  0  0  0  0  0  0  0  0
   -4.0556   -1.9105    3.4640 C   0  0  0  0  0  0  0  0  0  0  0  0
   -1.6080    2.1925    3.7189 C   0  0  0  0  0  0  0  0  0  0  0  0
   -3.6589   -3.9060    6.5244 C   0  0  0  0  0  0  0  0  0  0  0  0
    2.7743    1.6152   -0.8196 C   0  0  0  0  0  0  0  0  0  0  0  0
    0.0438   -1.5698   -0.0234 C   0  0  0  0  0  0  0  0  0  0  0  0
   -4.8516   -2.3165    1.2601 C   0  0  0  0  0  0  0  0  0  0  0  0
   -3.0236    1.7492    3.5272 C   0  0  0  0  0  0  0  0  0  0  0  0
   -1.4124    2.9776    4.8022 N   0  0  0  0  0  0  0  0  0  0  0  0
   -3.9890   -3.5852    5.1746 O   0  0  0  0  0  0  0  0  0  0  0  0
    2.5140    0.7466    0.2811 O   0  0  0  0  0  0  0  0  0  0  0  0
   -0.0615   -0.1606   -0.2165 O   0  0  0  0  0  0  0  0  0  0  0  0
   -4.5777   -2.7996    2.5737 O   0  0  0  0  0  0  0  0  0  0  0  0
   -2.5697    0.6382    5.9785 H   0  0  0  0  0  0  0  0  0  0  0  0
   -2.9917   -1.6861    6.6888 H   0  0  0  0  0  0  0  0  0  0  0  0
    1.9179    3.4635    4.4394 H   0  0  0  0  0  0  0  0  0  0  0  0
    2.7588    2.2503    2.3965 H   0  0  0  0  0  0  0  0  0  0  0  0
   -1.8466    0.6182    1.4980 H   0  0  0  0  0  0  0  0  0  0  0  0
   -4.0481   -0.2916    2.0437 H   0  0  0  0  0  0  0  0  0  0  0  0
   -0.0158    4.0310    5.8902 H   0  0  0  0  0  0  0  0  0  0  0  0
   -3.8904   -4.9565    6.7171 H   0  0  0  0  0  0  0  0  0  0  0  0
   -4.2295   -3.2659    7.2020 H   0  0  0  0  0  0  0  0  0  0  0  0
   -2.5907   -3.7364    6.6791 H   0  0  0  0  0  0  0  0  0  0  0  0
    3.6154    1.2275   -1.3996 H   0  0  0  0  0  0  0  0  0  0  0  0
    3.0050    2.6167   -0.4479 H   0  0  0  0  0  0  0  0  0  0  0  0
    1.8865    1.6599   -1.4549 H   0  0  0  0  0  0  0  0  0  0  0  0
   -0.1864   -2.0847   -0.9593 H   0  0  0  0  0  0  0  0  0  0  0  0
   -0.6519   -1.8843    0.7586 H   0  0  0  0  0  0  0  0  0  0  0  0
    1.0648   -1.8115    0.2812 H   0  0  0  0  0  0  0  0  0  0  0  0
   -5.2640   -3.1254    0.6521 H   0  0  0  0  0  0  0  0  0  0  0  0
   -3.9294   -1.9412    0.8092 H   0  0  0  0  0  0  0  0  0  0  0  0
   -5.5799   -1.5046    1.3246 H   0  0  0  0  0  0  0  0  0  0  0  0
   -3.3199    1.8616    2.4709 H   0  0  0  0  0  0  0  0  0  0  0  0
   -3.7111    2.4210    4.0676 H   0  0  0  0  0  0  0  0  0  0  0  0
  1  2  2  0  0  0  0
  1 10  1  0  0  0  0
  2 11  1  0  0  0  0
  3  7  2  0  0  0  0
  3  8  1  0  0  0  0
  4  8  1  0  0  0  0
  4 12  2  0  0  0  0
  5  9  1  0  0  0  0
  5 13  2  0  0  0  0
  6 10  2  0  0  0  0
  6 14  1  0  0  0  0
  7 21  1  0  0  0  0
  8  9  2  0  0  0  0
  9 15  1  0  0  0  0
 10 20  1  0  0  0  0
 11 14  2  0  0  0  0
 11 22  1  0  0  0  0
 12 13  1  0  0  0  0
 12 23  1  0  0  0  0
 13 24  1  0  0  0  0
 14 25  1  0  0  0  0
 15 20  1  0  0  0  0
 15 21  2  0  0  0  0
 16 22  1  0  0  0  0
 17 23  1  0  0  0  0
 18 24  1  0  0  0  0
 19 25  1  0  0  0  0
  1 26  1  0  0  0  0
  2 27  1  0  0  0  0
  3 28  1  0  0  0  0
  4 29  1  0  0  0  0
  5 30  1  0  0  0  0
  6 31  1  0  0  0  0
  7 32  1  0  0  0  0
 16 33  1  0  0  0  0
 16 34  1  0  0  0  0
 16 35  1  0  0  0  0
 17 36  1  0  0  0  0
 17 37  1  0  0  0  0
 17 38  1  0  0  0  0
 18 39  1  0  0  0  0
 18 40  1  0  0  0  0
 18 41  1  0  0  0  0
 19 42  1  0  0  0  0
 19 43  1  0  0  0  0
 19 44  1  0  0  0  0
 20 45  1  0  0  0  0
 20 46  1  0  0  0  0
M  END
$$$$
