4-butyl-1,2-diphenyl-pyrazolidine-3,5-dione
  -OEChem-02121815213D

 43 45  0     0  0  0  0  0  0999 V2000
    4.7075   -2.5897   -3.6749 C   0  0  0  0  0  0  0  0  0  0  0  0
    7.1906    2.1643    0.4582 C   0  0  0  0  0  0  0  0  0  0  0  0
    4.2404   -1.5188   -4.4368 C   0  0  0  0  0  0  0  0  0  0  0  0
    4.5455   -2.5832   -2.2895 C   0  0  0  0  0  0  0  0  0  0  0  0
    6.1984    2.1938    1.4381 C   0  0  0  0  0  0  0  0  0  0  0  0
    6.8650    1.8205   -0.8539 C   0  0  0  0  0  0  0  0  0  0  0  0
    3.6114   -0.4412   -3.8133 C   0  0  0  0  0  0  0  0  0  0  0  0
    3.9165   -1.5056   -1.6660 C   0  0  0  0  0  0  0  0  0  0  0  0
    4.8806    1.8795    1.1060 C   0  0  0  0  0  0  0  0  0  0  0  0
    5.5472    1.5062   -1.1860 C   0  0  0  0  0  0  0  0  0  0  0  0
    3.4494   -0.4346   -2.4279 C   0  0  0  0  0  0  0  0  0  0  0  0
    4.5550    1.5357   -0.2060 C   0  0  0  0  0  0  0  0  0  0  0  0
    1.4842    1.0382   -2.0868 C   0  0  0  0  0  0  0  0  0  0  0  0
    2.1066    1.7720    0.1240 C   0  0  0  0  0  0  0  0  0  0  0  0
    0.9607    1.7467   -0.8600 C   0  0  0  0  0  0  0  0  0  0  0  0
   -0.8191   -2.5846    0.9977 C   0  0  0  0  0  0  0  0  0  0  0  0
   -0.2448    1.0319   -0.2768 C   0  0  0  0  0  0  0  0  0  0  0  0
   -1.1372   -1.1381    0.6541 C   0  0  0  0  0  0  0  0  0  0  0  0
    0.0878   -0.4119    0.0990 C   0  0  0  0  0  0  0  0  0  0  0  0
    2.8053    0.6687   -1.7897 N   0  0  0  0  0  0  0  0  0  0  0  0
    3.2059    1.2141   -0.5458 N   0  0  0  0  0  0  0  0  0  0  0  0
    0.8001    0.7875   -3.0682 O   0  0  0  0  0  0  0  0  0  0  0  0
    2.0377    2.2881    1.2297 O   0  0  0  0  0  0  0  0  0  0  0  0
    5.1967   -3.4294   -4.1602 H   0  0  0  0  0  0  0  0  0  0  0  0
    8.2167    2.4097    0.7163 H   0  0  0  0  0  0  0  0  0  0  0  0
    4.3656   -1.5240   -5.5156 H   0  0  0  0  0  0  0  0  0  0  0  0
    4.9085   -3.4178   -1.6966 H   0  0  0  0  0  0  0  0  0  0  0  0
    6.4513    2.4623    2.4596 H   0  0  0  0  0  0  0  0  0  0  0  0
    7.6377    1.7985   -1.6169 H   0  0  0  0  0  0  0  0  0  0  0  0
    3.2513    0.3878   -4.4174 H   0  0  0  0  0  0  0  0  0  0  0  0
    3.7958   -1.5114   -0.5855 H   0  0  0  0  0  0  0  0  0  0  0  0
    4.1157    1.9060    1.8781 H   0  0  0  0  0  0  0  0  0  0  0  0
    5.3052    1.2397   -2.2118 H   0  0  0  0  0  0  0  0  0  0  0  0
    0.7183    2.7789   -1.1333 H   0  0  0  0  0  0  0  0  0  0  0  0
   -0.4550   -3.1258    0.1186 H   0  0  0  0  0  0  0  0  0  0  0  0
   -1.7167   -3.0938    1.3623 H   0  0  0  0  0  0  0  0  0  0  0  0
   -0.0543   -2.6432    1.7787 H   0  0  0  0  0  0  0  0  0  0  0  0
   -0.5921    1.5767    0.6087 H   0  0  0  0  0  0  0  0  0  0  0  0
   -1.0608    1.0478   -1.0086 H   0  0  0  0  0  0  0  0  0  0  0  0
   -1.4982   -0.6258    1.5536 H   0  0  0  0  0  0  0  0  0  0  0  0
   -1.9497   -1.1136   -0.0815 H   0  0  0  0  0  0  0  0  0  0  0  0
    0.8908   -0.4216    0.8461 H   0  0  0  0  0  0  0  0  0  0  0  0
    0.4620   -0.9446   -0.7838 H   0  0  0  0  0  0  0  0  0  0  0  0
  1  3  1  0  0  0  0
  1  4  2  0  0  0  0
  2  5  1  0  0  0  0
  2  6  2  0  0  0  0
  3  7  2  0  0  0  0
  4  8  1  0  0  0  0
  5  9  2  0  0  0  0
  6 10  1  0  0  0  0
  7 11  1  0  0  0  0
  8 11  2  0  0  0  0
  9 12  1  0  0  0  0
 10 12  2  0  0  0  0
 11 20  1  0  0  0  0
 12 21  1  0  0  0  0
 13 15  1  0  0  0  0
 13 20  1  0  0  0  0
 13 22  2  0  0  0  0
 14 15  1  0  0  0  0
 14 21  1  0  0  0  0
 14 23  2  0  0  0  0
 15 17  1  0  0  0  0
 16 18  1  0  0  0  0
 17 19  1  0  0  0  0
 18 19  1  0  0  0  0
 20 21  1  0  0  0  0
  1 24  1  0  0  0  0
  2 25  1  0  0  0  0
  3 26  1  0  0  0  0
  4 27  1  0  0  0  0
  5 28  1  0  0  0  0
  6 29  1  0  0  0  0
  7 30  1  0  0  0  0
  8 31  1  0  0  0  0
  9 32  1  0  0  0  0
 10 33  1  0  0  0  0
 15 34  1  0  0  0  0
 16 35  1  0  0  0  0
 16 36  1  0  0  0  0
 16 37  1  0  0  0  0
 17 38  1  0  0  0  0
 17 39  1  0  0  0  0
 18 40  1  0  0  0  0
 18 41  1  0  0  0  0
 19 42  1  0  0  0  0
 19 43  1  0  0  0  0
M  END
$$$$
