3-phenylazopyridine-2,6-diamine
  -OEChem-02121815213D

 27 28  0     0  0  0  0  0  0999 V2000
    1.2298    0.2948   -0.1121 C   0  0  0  0  0  0  0  0  0  0  0  0
    2.3864    0.0162    0.6160 C   0  0  0  0  0  0  0  0  0  0  0  0
    0.0315    0.5522    0.5538 C   0  0  0  0  0  0  0  0  0  0  0  0
    2.3448   -0.0051    2.0101 C   0  0  0  0  0  0  0  0  0  0  0  0
   -0.0102    0.5309    1.9479 C   0  0  0  0  0  0  0  0  0  0  0  0
    0.9993    0.1983    6.5964 C   0  0  0  0  0  0  0  0  0  0  0  0
    0.9588    0.1777    7.9861 C   0  0  0  0  0  0  0  0  0  0  0  0
    1.1464    0.2522    2.6761 C   0  0  0  0  0  0  0  0  0  0  0  0
    2.1964   -0.0591    5.9375 C   0  0  0  0  0  0  0  0  0  0  0  0
    2.1334   -0.1032    8.6651 C   0  0  0  0  0  0  0  0  0  0  0  0
    3.3157   -0.3293    6.7082 C   0  0  0  0  0  0  0  0  0  0  0  0
    3.3150   -0.3582    8.0598 N   0  0  0  0  0  0  0  0  0  0  0  0
    1.1042    0.2305    4.0737 N   0  0  0  0  0  0  0  0  0  0  0  0
    2.2393   -0.0377    4.5329 N   0  0  0  0  0  0  0  0  0  0  0  0
    2.0763   -0.1209   10.0811 N   0  0  0  0  0  0  0  0  0  0  0  0
    4.5387   -0.5928    6.0418 N   0  0  0  0  0  0  0  0  0  0  0  0
    1.2625    0.3113   -1.1976 H   0  0  0  0  0  0  0  0  0  0  0  0
    3.3195   -0.1839    0.0974 H   0  0  0  0  0  0  0  0  0  0  0  0
   -0.8690    0.7691   -0.0132 H   0  0  0  0  0  0  0  0  0  0  0  0
    3.2507   -0.2236    2.5693 H   0  0  0  0  0  0  0  0  0  0  0  0
   -0.9487    0.7326    2.4578 H   0  0  0  0  0  0  0  0  0  0  0  0
    0.0935    0.4155    6.0367 H   0  0  0  0  0  0  0  0  0  0  0  0
    0.0294    0.3780    8.5094 H   0  0  0  0  0  0  0  0  0  0  0  0
    1.2182    0.1128   10.5309 H   0  0  0  0  0  0  0  0  0  0  0  0
    2.9169   -0.2737   10.5943 H   0  0  0  0  0  0  0  0  0  0  0  0
    4.5467   -0.6227    5.0458 H   0  0  0  0  0  0  0  0  0  0  0  0
    5.3390   -0.8347    6.5841 H   0  0  0  0  0  0  0  0  0  0  0  0
  1  2  1  0  0  0  0
  1  3  2  0  0  0  0
  2  4  2  0  0  0  0
  3  5  1  0  0  0  0
  4  8  1  0  0  0  0
  5  8  2  0  0  0  0
  6  7  2  0  0  0  0
  6  9  1  0  0  0  0
  7 10  1  0  0  0  0
  8 13  1  0  0  0  0
  9 11  2  0  0  0  0
  9 14  1  0  0  0  0
 10 12  2  0  0  0  0
 10 15  1  0  0  0  0
 11 12  1  0  0  0  0
 11 16  1  0  0  0  0
 13 14  2  0  0  0  0
  1 17  1  0  0  0  0
  2 18  1  0  0  0  0
  3 19  1  0  0  0  0
  4 20  1  0  0  0  0
  5 21  1  0  0  0  0
  6 22  1  0  0  0  0
  7 23  1  0  0  0  0
 15 24  1  0  0  0  0
 15 25  1  0  0  0  0
 16 26  1  0  0  0  0
 16 27  1  0  0  0  0
M  END
$$$$
