4-hydroxy-2-methyl-1,1-dioxo-~{N}-(2-pyridyl)-1$l^{6},2-benzothiazine-3-carboxam
  -OEChem-02121815213D

 36 38  0     1  0  0  0  0  0999 V2000
    1.9943   -0.6969   -0.4176 C   0  0  0  0  0  0  0  0  0  0  0  0
    0.6397   -0.5272   -0.7017 C   0  0  0  0  0  0  0  0  0  0  0  0
    5.3211   -5.4739   -9.1851 C   0  0  0  0  0  0  0  0  0  0  0  0
    4.4310   -5.9777  -10.1271 C   0  0  0  0  0  0  0  0  0  0  0  0
    2.8262   -1.3743   -1.3161 C   0  0  0  0  0  0  0  0  0  0  0  0
    0.1088   -1.0347   -1.8833 C   0  0  0  0  0  0  0  0  0  0  0  0
    4.8370   -4.7893   -8.0759 C   0  0  0  0  0  0  0  0  0  0  0  0
    3.0773   -5.7719   -9.9153 C   0  0  0  0  0  0  0  0  0  0  0  0
    2.3171   -1.8919   -2.5159 C   0  0  0  0  0  0  0  0  0  0  0  0
    0.9511   -1.7113   -2.7639 C   0  0  0  0  0  0  0  0  0  0  0  0
    3.4651   -4.6366   -7.9561 C   0  0  0  0  0  0  0  0  0  0  0  0
    3.1805   -2.6138   -3.4816 C   0  0  0  0  0  0  0  0  0  0  0  0
    2.8816   -2.7299   -4.7915 C   0  0  0  0  0  0  0  0  0  0  0  0
    3.7289   -3.3766   -5.7976 C   0  0  0  0  0  0  0  0  0  0  0  0
    1.8524   -0.7710   -5.8902 C   0  0  0  0  0  0  0  0  0  0  0  0
    2.5696   -5.1120   -8.8503 N   0  0  0  0  0  0  0  0  0  0  0  0
    1.6736   -2.1302   -5.3014 N   0  0  2  0  0  0  0  0  0  0  0  0
    2.9825   -3.9381   -6.8225 N   0  0  0  0  0  0  0  0  0  0  0  0
    4.9490   -3.3672   -5.6594 O   0  0  0  0  0  0  0  0  0  0  0  0
   -0.7702   -1.4867   -4.7018 O   0  0  0  0  0  0  0  0  0  0  0  0
    0.0872   -3.7692   -4.0411 O   0  0  0  0  0  0  0  0  0  0  0  0
    4.3246   -3.1374   -2.9093 O   0  0  0  0  0  0  0  0  0  0  0  0
    0.3080   -2.3537   -4.2676 S   0  0  0  0  0  0  0  0  0  0  0  0
    2.4064   -0.3015    0.5070 H   0  0  0  0  0  0  0  0  0  0  0  0
   -0.0014   -0.0059    0.0040 H   0  0  0  0  0  0  0  0  0  0  0  0
    6.3898   -5.6142   -9.3158 H   0  0  0  0  0  0  0  0  0  0  0  0
    4.7860   -6.5150  -10.9990 H   0  0  0  0  0  0  0  0  0  0  0  0
    3.8751   -1.4866   -1.0569 H   0  0  0  0  0  0  0  0  0  0  0  0
   -0.9447   -0.8959   -2.0969 H   0  0  0  0  0  0  0  0  0  0  0  0
    5.5247   -4.3936   -7.3357 H   0  0  0  0  0  0  0  0  0  0  0  0
    2.3414   -6.1454  -10.6198 H   0  0  0  0  0  0  0  0  0  0  0  0
    0.8941   -0.3891   -6.2517 H   0  0  0  0  0  0  0  0  0  0  0  0
    2.5538   -0.8113   -6.7281 H   0  0  0  0  0  0  0  0  0  0  0  0
    2.2446   -0.0817   -5.1377 H   0  0  0  0  0  0  0  0  0  0  0  0
    1.9697   -3.8480   -6.7722 H   0  0  0  0  0  0  0  0  0  0  0  0
    4.8419   -3.5914   -3.5802 H   0  0  0  0  0  0  0  0  0  0  0  0
  1  2  1  0  0  0  0
  1  5  2  0  0  0  0
  2  6  2  0  0  0  0
  3  4  2  0  0  0  0
  3  7  1  0  0  0  0
  4  8  1  0  0  0  0
  5  9  1  0  0  0  0
  6 10  1  0  0  0  0
  7 11  2  0  0  0  0
  8 16  2  0  0  0  0
  9 10  2  0  0  0  0
  9 12  1  0  0  0  0
 10 23  1  0  0  0  0
 11 16  1  0  0  0  0
 11 18  1  0  0  0  0
 12 13  2  0  0  0  0
 12 22  1  0  0  0  0
 13 14  1  0  0  0  0
 13 17  1  0  0  0  0
 14 18  1  0  0  0  0
 14 19  2  0  0  0  0
 15 17  1  0  0  0  0
 17 23  1  0  0  0  0
 20 23  2  0  0  0  0
 21 23  2  0  0  0  0
  1 24  1  0  0  0  0
  2 25  1  0  0  0  0
  3 26  1  0  0  0  0
  4 27  1  0  0  0  0
  5 28  1  0  0  0  0
  6 29  1  0  0  0  0
  7 30  1  0  0  0  0
  8 31  1  0  0  0  0
 15 32  1  0  0  0  0
 15 33  1  0  0  0  0
 15 34  1  0  0  0  0
 18 35  1  0  0  0  0
 22 36  1  0  0  0  0
M  END
$$$$
