2-(diethylamino)ethyl 4-aminobenzoate
  -OEChem-02121815213D

 37 37  0     0  0  0  0  0  0999 V2000
   -0.9138   -5.8420    4.8533 C   0  0  0  0  0  0  0  0  0  0  0  0
    0.4588   -3.9155    5.3450 C   0  0  0  0  0  0  0  0  0  0  0  0
   -0.9931   -6.1330    6.2151 C   0  0  0  0  0  0  0  0  0  0  0  0
    0.3794   -4.2065    6.7069 C   0  0  0  0  0  0  0  0  0  0  0  0
   -0.1878   -4.7332    4.4182 C   0  0  0  0  0  0  0  0  0  0  0  0
   -0.3466   -5.3153    7.1419 C   0  0  0  0  0  0  0  0  0  0  0  0
   -0.1032   -4.4234    2.9686 C   0  0  0  0  0  0  0  0  0  0  0  0
    2.8779    0.8546    0.5831 C   0  0  0  0  0  0  0  0  0  0  0  0
    0.8185   -0.2062   -1.9957 C   0  0  0  0  0  0  0  0  0  0  0  0
    3.0329   -0.4118   -0.1881 C   0  0  0  0  0  0  0  0  0  0  0  0
    0.6636   -0.5635   -0.5566 C   0  0  0  0  0  0  0  0  0  0  0  0
    1.6567   -1.6543    1.3398 C   0  0  0  0  0  0  0  0  0  0  0  0
    0.8004   -2.9060    1.4013 C   0  0  0  0  0  0  0  0  0  0  0  0
   -0.4269   -5.6096    8.5188 N   0  0  0  0  0  0  0  0  0  0  0  0
    1.8482   -1.2590   -0.0551 N   0  0  0  0  0  0  0  0  0  0  0  0
   -0.6452   -5.0979    2.1068 O   0  0  0  0  0  0  0  0  0  0  0  0
    0.6465   -3.3068    2.7568 O   0  0  0  0  0  0  0  0  0  0  0  0
   -1.4215   -6.4859    4.1397 H   0  0  0  0  0  0  0  0  0  0  0  0
    1.0272   -3.0489    5.0171 H   0  0  0  0  0  0  0  0  0  0  0  0
   -1.5616   -6.9996    6.5432 H   0  0  0  0  0  0  0  0  0  0  0  0
    0.8870   -3.5627    7.4206 H   0  0  0  0  0  0  0  0  0  0  0  0
    2.0182    1.4294    0.2218 H   0  0  0  0  0  0  0  0  0  0  0  0
    2.7508    0.6479    1.6514 H   0  0  0  0  0  0  0  0  0  0  0  0
    3.7740    1.4750    0.4624 H   0  0  0  0  0  0  0  0  0  0  0  0
    1.6781    0.4565   -2.1434 H   0  0  0  0  0  0  0  0  0  0  0  0
    0.9456   -1.1047   -2.6094 H   0  0  0  0  0  0  0  0  0  0  0  0
   -0.0777    0.3195   -2.3464 H   0  0  0  0  0  0  0  0  0  0  0  0
    3.8929   -0.9807    0.1777 H   0  0  0  0  0  0  0  0  0  0  0  0
    3.1754   -0.2030   -1.2525 H   0  0  0  0  0  0  0  0  0  0  0  0
   -0.1964   -1.2253   -0.4163 H   0  0  0  0  0  0  0  0  0  0  0  0
    0.5209    0.3338    0.0528 H   0  0  0  0  0  0  0  0  0  0  0  0
    1.1822   -0.8225    1.8700 H   0  0  0  0  0  0  0  0  0  0  0  0
    2.6408   -1.8442    1.7788 H   0  0  0  0  0  0  0  0  0  0  0  0
    1.2904   -3.7221    0.8612 H   0  0  0  0  0  0  0  0  0  0  0  0
   -0.1913   -2.7368    0.9693 H   0  0  0  0  0  0  0  0  0  0  0  0
   -0.9889   -6.3794    8.8213 H   0  0  0  0  0  0  0  0  0  0  0  0
    0.0014   -4.9893    9.1759 H   0  0  0  0  0  0  0  0  0  0  0  0
  1  3  1  0  0  0  0
  1  5  2  0  0  0  0
  2  4  2  0  0  0  0
  2  5  1  0  0  0  0
  3  6  2  0  0  0  0
  4  6  1  0  0  0  0
  5  7  1  0  0  0  0
  6 14  1  0  0  0  0
  7 16  2  0  0  0  0
  7 17  1  0  0  0  0
  8 10  1  0  0  0  0
  9 11  1  0  0  0  0
 10 15  1  0  0  0  0
 11 15  1  0  0  0  0
 12 13  1  0  0  0  0
 12 15  1  0  0  0  0
 13 17  1  0  0  0  0
  1 18  1  0  0  0  0
  2 19  1  0  0  0  0
  3 20  1  0  0  0  0
  4 21  1  0  0  0  0
  8 22  1  0  0  0  0
  8 23  1  0  0  0  0
  8 24  1  0  0  0  0
  9 25  1  0  0  0  0
  9 26  1  0  0  0  0
  9 27  1  0  0  0  0
 10 28  1  0  0  0  0
 10 29  1  0  0  0  0
 11 30  1  0  0  0  0
 11 31  1  0  0  0  0
 12 32  1  0  0  0  0
 12 33  1  0  0  0  0
 13 34  1  0  0  0  0
 13 35  1  0  0  0  0
 14 36  1  0  0  0  0
 14 37  1  0  0  0  0
M  END
$$$$
