1-(isopropylamino)-3-(1-naphthyloxy)propan-2-ol
  -OEChem-02121815213D

 40 41  0     1  0  0  0  0  0999 V2000
    0.9262   -5.5192   -2.6836 C   0  0  0  0  0  0  0  0  0  0  0  0
    1.6336   -4.5295   -3.3595 C   0  0  0  0  0  0  0  0  0  0  0  0
    3.0316   -4.1735    1.4911 C   0  0  0  0  0  0  0  0  0  0  0  0
    1.0937   -5.6819   -1.3082 C   0  0  0  0  0  0  0  0  0  0  0  0
    2.5113   -3.6986   -2.6625 C   0  0  0  0  0  0  0  0  0  0  0  0
    2.1539   -5.0043    0.7941 C   0  0  0  0  0  0  0  0  0  0  0  0
    3.7391   -3.1837    0.8152 C   0  0  0  0  0  0  0  0  0  0  0  0
    1.9729   -4.8547   -0.5906 C   0  0  0  0  0  0  0  0  0  0  0  0
    2.6923   -3.8482   -1.2779 C   0  0  0  0  0  0  0  0  0  0  0  0
    3.5716   -3.0210   -0.5602 C   0  0  0  0  0  0  0  0  0  0  0  0
    8.5386   -0.9515   -2.0023 C   0  0  0  0  0  0  0  0  0  0  0  0
    8.9642    1.3327   -1.0291 C   0  0  0  0  0  0  0  0  0  0  0  0
    5.7434    0.1935   -2.4357 C   0  0  0  0  0  0  0  0  0  0  0  0
    4.0685   -0.7017   -0.7327 C   0  0  0  0  0  0  0  0  0  0  0  0
    8.0706    0.4948   -1.9319 C   0  0  0  0  0  0  0  0  0  0  0  0
    4.3145    0.2545   -1.8958 C   0  0  2  0  0  0  0  0  0  0  0  0
    6.7059    0.5313   -1.4122 N   0  0  0  0  0  0  0  0  0  0  0  0
    3.3925   -0.0556   -2.9413 O   0  0  0  0  0  0  0  0  0  0  0  0
    4.2871   -2.0364   -1.1801 O   0  0  0  0  0  0  0  0  0  0  0  0
    0.2431   -6.1657   -3.2269 H   0  0  0  0  0  0  0  0  0  0  0  0
    1.5026   -4.4035   -4.4303 H   0  0  0  0  0  0  0  0  0  0  0  0
    3.1624   -4.2997    2.5619 H   0  0  0  0  0  0  0  0  0  0  0  0
    0.5304   -6.4622   -0.8005 H   0  0  0  0  0  0  0  0  0  0  0  0
    3.0486   -2.9353   -3.2210 H   0  0  0  0  0  0  0  0  0  0  0  0
    1.6113   -5.7712    1.3429 H   0  0  0  0  0  0  0  0  0  0  0  0
    4.4208   -2.5408    1.3656 H   0  0  0  0  0  0  0  0  0  0  0  0
    8.5561   -1.4047   -1.0058 H   0  0  0  0  0  0  0  0  0  0  0  0
    7.8816   -1.5539   -2.6398 H   0  0  0  0  0  0  0  0  0  0  0  0
    9.5492   -1.0130   -2.4206 H   0  0  0  0  0  0  0  0  0  0  0  0
    8.9893    0.9185   -0.0152 H   0  0  0  0  0  0  0  0  0  0  0  0
    8.5983    2.3627   -0.9656 H   0  0  0  0  0  0  0  0  0  0  0  0
    9.9953    1.3591   -1.3992 H   0  0  0  0  0  0  0  0  0  0  0  0
    5.9652   -0.8175   -2.7935 H   0  0  0  0  0  0  0  0  0  0  0  0
    5.8597    0.8814   -3.2797 H   0  0  0  0  0  0  0  0  0  0  0  0
    3.0368   -0.6287   -0.3750 H   0  0  0  0  0  0  0  0  0  0  0  0
    4.7596   -0.5135    0.0952 H   0  0  0  0  0  0  0  0  0  0  0  0
    8.0610    0.9271   -2.9384 H   0  0  0  0  0  0  0  0  0  0  0  0
    4.0917    1.2793   -1.5759 H   0  0  0  0  0  0  0  0  0  0  0  0
    6.5166    1.4714   -1.0543 H   0  0  0  0  0  0  0  0  0  0  0  0
    3.5296    0.6093   -3.6327 H   0  0  0  0  0  0  0  0  0  0  0  0
  1  2  1  0  0  0  0
  1  4  2  0  0  0  0
  2  5  2  0  0  0  0
  3  6  2  0  0  0  0
  3  7  1  0  0  0  0
  4  8  1  0  0  0  0
  5  9  1  0  0  0  0
  6  8  1  0  0  0  0
  7 10  2  0  0  0  0
  8  9  2  0  0  0  0
  9 10  1  0  0  0  0
 10 19  1  0  0  0  0
 11 15  1  0  0  0  0
 12 15  1  0  0  0  0
 13 16  1  0  0  0  0
 13 17  1  0  0  0  0
 14 16  1  0  0  0  0
 14 19  1  0  0  0  0
 15 17  1  0  0  0  0
 16 18  1  0  0  0  0
  1 20  1  0  0  0  0
  2 21  1  0  0  0  0
  3 22  1  0  0  0  0
  4 23  1  0  0  0  0
  5 24  1  0  0  0  0
  6 25  1  0  0  0  0
  7 26  1  0  0  0  0
 11 27  1  0  0  0  0
 11 28  1  0  0  0  0
 11 29  1  0  0  0  0
 12 30  1  0  0  0  0
 12 31  1  0  0  0  0
 12 32  1  0  0  0  0
 13 33  1  0  0  0  0
 13 34  1  0  0  0  0
 14 35  1  0  0  0  0
 14 36  1  0  0  0  0
 15 37  1  0  0  0  0
 16 38  1  0  0  0  0
 17 39  1  0  0  0  0
 18 40  1  0  0  0  0
M  END
$$$$
