(~{Z})-~{N}1'-[2-[[5-[(dimethylamino)methyl]-2-furyl]methylsulfanyl]ethyl]-~{N}1
  -OEChem-02121815213D

 43 43  0     0  0  0  0  0  0999 V2000
    2.3969   -2.4933    6.5331 C   0  0  0  0  0  0  0  0  0  0  0  0
    1.6054   -1.6657    5.7013 C   0  0  0  0  0  0  0  0  0  0  0  0
    3.5316   -2.7854    5.8127 C   0  0  0  0  0  0  0  0  0  0  0  0
    2.3130   -1.5109    4.5320 C   0  0  0  0  0  0  0  0  0  0  0  0
    5.7495    3.3573    6.7933 C   0  0  0  0  0  0  0  0  0  0  0  0
    4.6778    3.7187    6.0548 C   0  0  0  0  0  0  0  0  0  0  0  0
    5.1876    6.2082    6.3678 C   0  0  0  0  0  0  0  0  0  0  0  0
    6.4672   -1.9374    6.2939 C   0  0  0  0  0  0  0  0  0  0  0  0
    6.5166   -3.9004    7.6783 C   0  0  0  0  0  0  0  0  0  0  0  0
    4.7296   -3.5856    6.1034 C   0  0  0  0  0  0  0  0  0  0  0  0
    2.0403   -0.7629    3.2561 C   0  0  0  0  0  0  0  0  0  0  0  0
    2.6472    3.0641    4.6806 C   0  0  0  0  0  0  0  0  0  0  0  0
    1.9319    1.8062    4.2069 C   0  0  0  0  0  0  0  0  0  0  0  0
    4.4337    5.0839    5.8669 N   0  0  0  0  0  0  0  0  0  0  0  0
    3.8160    2.7819    5.4809 N   0  0  0  0  0  0  0  0  0  0  0  0
    5.6501   -2.9252    7.0073 N   0  0  0  0  0  0  0  0  0  0  0  0
    6.0413    1.9859    7.0149 N   0  3  0  0  0  0  0  0  0  0  0  0
    5.1799    1.3060    7.5924 O   0  5  0  0  0  0  0  0  0  0  0  0
    7.1372    1.5645    6.6160 O   0  0  0  0  0  0  0  0  0  0  0  0
    3.4883   -2.1902    4.5918 O   0  0  0  0  0  0  0  0  0  0  0  0
    2.9890    0.7712    3.1491 S   0  0  0  0  0  0  0  0  0  0  0  0
    2.1668   -2.8331    7.5327 H   0  0  0  0  0  0  0  0  0  0  0  0
    0.6399   -1.2370    5.9291 H   0  0  0  0  0  0  0  0  0  0  0  0
    6.4731    3.9942    7.2790 H   0  0  0  0  0  0  0  0  0  0  0  0
    6.0397    5.8573    6.9557 H   0  0  0  0  0  0  0  0  0  0  0  0
    4.5554    6.8342    7.0034 H   0  0  0  0  0  0  0  0  0  0  0  0
    5.5589    6.8146    5.5372 H   0  0  0  0  0  0  0  0  0  0  0  0
    5.8242   -1.2092    5.7929 H   0  0  0  0  0  0  0  0  0  0  0  0
    7.0893   -2.4327    5.5434 H   0  0  0  0  0  0  0  0  0  0  0  0
    7.1183   -1.4083    6.9950 H   0  0  0  0  0  0  0  0  0  0  0  0
    5.9104   -4.6379    8.2108 H   0  0  0  0  0  0  0  0  0  0  0  0
    7.1683   -3.3957    8.3967 H   0  0  0  0  0  0  0  0  0  0  0  0
    7.1393   -4.4201    6.9451 H   0  0  0  0  0  0  0  0  0  0  0  0
    4.4793   -4.5592    6.5669 H   0  0  0  0  0  0  0  0  0  0  0  0
    5.3092   -3.8288    5.1923 H   0  0  0  0  0  0  0  0  0  0  0  0
    2.2815   -1.3894    2.3902 H   0  0  0  0  0  0  0  0  0  0  0  0
    0.9738   -0.5232    3.1808 H   0  0  0  0  0  0  0  0  0  0  0  0
    1.9713    3.6503    5.3120 H   0  0  0  0  0  0  0  0  0  0  0  0
    2.9562    3.6990    3.8436 H   0  0  0  0  0  0  0  0  0  0  0  0
    1.5971    1.2039    5.0576 H   0  0  0  0  0  0  0  0  0  0  0  0
    1.0503    2.0854    3.6216 H   0  0  0  0  0  0  0  0  0  0  0  0
    3.6169    5.3006    5.3050 H   0  0  0  0  0  0  0  0  0  0  0  0
    4.0167    1.8011    5.6340 H   0  0  0  0  0  0  0  0  0  0  0  0
  1  2  1  0  0  0  0
  1  3  2  0  0  0  0
  2  4  2  0  0  0  0
  3 10  1  0  0  0  0
  3 20  1  0  0  0  0
  4 11  1  0  0  0  0
  4 20  1  0  0  0  0
  5  6  2  0  0  0  0
  5 17  1  0  0  0  0
  6 14  1  0  0  0  0
  6 15  1  0  0  0  0
  7 14  1  0  0  0  0
  8 16  1  0  0  0  0
  9 16  1  0  0  0  0
 10 16  1  0  0  0  0
 11 21  1  0  0  0  0
 12 13  1  0  0  0  0
 12 15  1  0  0  0  0
 13 21  1  0  0  0  0
 17 18  1  0  0  0  0
 17 19  2  0  0  0  0
  1 22  1  0  0  0  0
  2 23  1  0  0  0  0
  5 24  1  0  0  0  0
  7 25  1  0  0  0  0
  7 26  1  0  0  0  0
  7 27  1  0  0  0  0
  8 28  1  0  0  0  0
  8 29  1  0  0  0  0
  8 30  1  0  0  0  0
  9 31  1  0  0  0  0
  9 32  1  0  0  0  0
  9 33  1  0  0  0  0
 10 34  1  0  0  0  0
 10 35  1  0  0  0  0
 11 36  1  0  0  0  0
 11 37  1  0  0  0  0
 12 38  1  0  0  0  0
 12 39  1  0  0  0  0
 13 40  1  0  0  0  0
 13 41  1  0  0  0  0
 14 42  1  0  0  0  0
 15 43  1  0  0  0  0
M  CHG  2  17   1  18  -1
M  END
$$$$
