4-amino-~{N}-thiazol-2-yl-benzenesulfonamide
  -OEChem-02121815213D

 25 26  0     0  0  0  0  0  0999 V2000
    1.8851   -1.0363   -0.1124 C   0  0  0  0  0  0  0  0  0  0  0  0
    2.8783   -1.6520    2.0022 C   0  0  0  0  0  0  0  0  0  0  0  0
    0.8066   -0.4630    0.5610 C   0  0  0  0  0  0  0  0  0  0  0  0
    1.7997   -1.0786    2.6757 C   0  0  0  0  0  0  0  0  0  0  0  0
    0.4816    3.2796   -0.1979 C   0  0  0  0  0  0  0  0  0  0  0  0
    1.5220    4.0276    0.3122 C   0  0  0  0  0  0  0  0  0  0  0  0
    2.9210   -1.6309    0.6081 C   0  0  0  0  0  0  0  0  0  0  0  0
    0.7638   -0.4841    1.9551 C   0  0  0  0  0  0  0  0  0  0  0  0
    0.3914    2.5939    1.8833 C   0  0  0  0  0  0  0  0  0  0  0  0
   -0.1676    2.4566    0.7015 N   0  0  0  0  0  0  0  0  0  0  0  0
    4.0119   -2.2107   -0.0724 N   0  0  0  0  0  0  0  0  0  0  0  0
   -0.0711    1.8604    3.0307 N   0  0  0  0  0  0  0  0  0  0  0  0
   -0.6802   -0.4031    4.1078 O   0  0  0  0  0  0  0  0  0  0  0  0
   -1.7503    0.2096    1.9217 O   0  0  0  0  0  0  0  0  0  0  0  0
    1.7025    3.6964    1.9852 S   0  0  0  0  0  0  0  0  0  0  0  0
   -0.5862    0.2327    2.7989 S   0  0  0  0  0  0  0  0  0  0  0  0
    1.9081   -1.0145   -1.1990 H   0  0  0  0  0  0  0  0  0  0  0  0
    3.6808   -2.1118    2.5735 H   0  0  0  0  0  0  0  0  0  0  0  0
    0.0051   -0.0027   -0.0106 H   0  0  0  0  0  0  0  0  0  0  0  0
    1.7768   -1.1011    3.7620 H   0  0  0  0  0  0  0  0  0  0  0  0
    0.1526    3.2980   -1.2282 H   0  0  0  0  0  0  0  0  0  0  0  0
    2.1617    4.7315   -0.2010 H   0  0  0  0  0  0  0  0  0  0  0  0
    4.0082   -2.2310   -1.0721 H   0  0  0  0  0  0  0  0  0  0  0  0
    4.7240   -2.6749    0.4542 H   0  0  0  0  0  0  0  0  0  0  0  0
    0.4442    2.0511    3.9001 H   0  0  0  0  0  0  0  0  0  0  0  0
  1  3  2  0  0  0  0
  1  7  1  0  0  0  0
  2  4  1  0  0  0  0
  2  7  2  0  0  0  0
  3  8  1  0  0  0  0
  4  8  2  0  0  0  0
  5  6  2  0  0  0  0
  5 10  1  0  0  0  0
  6 15  1  0  0  0  0
  7 11  1  0  0  0  0
  8 16  1  0  0  0  0
  9 10  2  0  0  0  0
  9 12  1  0  0  0  0
  9 15  1  0  0  0  0
 12 16  1  0  0  0  0
 13 16  2  0  0  0  0
 14 16  2  0  0  0  0
  1 17  1  0  0  0  0
  2 18  1  0  0  0  0
  3 19  1  0  0  0  0
  4 20  1  0  0  0  0
  5 21  1  0  0  0  0
  6 22  1  0  0  0  0
 11 23  1  0  0  0  0
 11 24  1  0  0  0  0
 12 25  1  0  0  0  0
M  END
$$$$
