2-(dimethylamino)ethyl 4-(butylamino)benzoate
  -OEChem-02121815213D

 43 43  0     0  0  0  0  0  0999 V2000
    1.8917    3.3780    1.5675 C   0  0  0  0  0  0  0  0  0  0  0  0
    2.2556    2.9584    3.9188 C   0  0  0  0  0  0  0  0  0  0  0  0
    0.5311    3.5646    1.8114 C   0  0  0  0  0  0  0  0  0  0  0  0
    0.8950    3.1451    4.1627 C   0  0  0  0  0  0  0  0  0  0  0  0
    2.7540    3.0748    2.6212 C   0  0  0  0  0  0  0  0  0  0  0  0
    0.0327    3.4482    3.1090 C   0  0  0  0  0  0  0  0  0  0  0  0
    4.1725    2.8801    2.3669 C   0  0  0  0  0  0  0  0  0  0  0  0
   -5.5261    4.1712    5.9719 C   0  0  0  0  0  0  0  0  0  0  0  0
    8.7668    1.0528    5.7870 C   0  0  0  0  0  0  0  0  0  0  0  0
    9.0175    3.0825    4.5260 C   0  0  0  0  0  0  0  0  0  0  0  0
   -4.0564    3.7830    6.0164 C   0  0  0  0  0  0  0  0  0  0  0  0
   -3.4157    3.8610    4.6288 C   0  0  0  0  0  0  0  0  0  0  0  0
   -1.9261    3.5348    4.6521 C   0  0  0  0  0  0  0  0  0  0  0  0
    6.8487    2.0766    4.7648 C   0  0  0  0  0  0  0  0  0  0  0  0
    6.2659    2.3805    3.3967 C   0  0  0  0  0  0  0  0  0  0  0  0
   -1.3228    3.6343    3.3520 N   0  0  0  0  0  0  0  0  0  0  0  0
    8.3016    1.8196    4.6399 N   0  0  0  0  0  0  0  0  0  0  0  0
    4.7018    2.9637    1.2507 O   0  0  0  0  0  0  0  0  0  0  0  0
    4.8553    2.5929    3.5173 O   0  0  0  0  0  0  0  0  0  0  0  0
    2.2693    3.4711    0.5525 H   0  0  0  0  0  0  0  0  0  0  0  0
    2.9186    2.7224    4.7473 H   0  0  0  0  0  0  0  0  0  0  0  0
   -0.1320    3.8006    0.9830 H   0  0  0  0  0  0  0  0  0  0  0  0
    0.5172    3.0521    5.1777 H   0  0  0  0  0  0  0  0  0  0  0  0
   -6.0828    3.5217    5.2888 H   0  0  0  0  0  0  0  0  0  0  0  0
   -5.9725    4.0799    6.9671 H   0  0  0  0  0  0  0  0  0  0  0  0
   -5.6488    5.2067    5.6386 H   0  0  0  0  0  0  0  0  0  0  0  0
    8.2186    0.1096    5.8558 H   0  0  0  0  0  0  0  0  0  0  0  0
    8.6098    1.6192    6.7090 H   0  0  0  0  0  0  0  0  0  0  0  0
    9.8333    0.8336    5.6878 H   0  0  0  0  0  0  0  0  0  0  0  0
    8.6550    3.6431    3.6605 H   0  0  0  0  0  0  0  0  0  0  0  0
   10.0886    2.9001    4.4037 H   0  0  0  0  0  0  0  0  0  0  0  0
    8.8651    3.6857    5.4250 H   0  0  0  0  0  0  0  0  0  0  0  0
   -3.5295    4.4510    6.7076 H   0  0  0  0  0  0  0  0  0  0  0  0
   -3.9701    2.7668    6.4173 H   0  0  0  0  0  0  0  0  0  0  0  0
   -3.9346    3.1776    3.9454 H   0  0  0  0  0  0  0  0  0  0  0  0
   -3.5442    4.8749    4.2308 H   0  0  0  0  0  0  0  0  0  0  0  0
   -1.7467    2.5229    5.0288 H   0  0  0  0  0  0  0  0  0  0  0  0
   -1.3991    4.2391    5.3035 H   0  0  0  0  0  0  0  0  0  0  0  0
    6.7068    2.9166    5.4521 H   0  0  0  0  0  0  0  0  0  0  0  0
    6.3795    1.1836    5.1888 H   0  0  0  0  0  0  0  0  0  0  0  0
    6.4234    1.5309    2.7251 H   0  0  0  0  0  0  0  0  0  0  0  0
    6.7200    3.2736    2.9551 H   0  0  0  0  0  0  0  0  0  0  0  0
   -1.9186    3.8526    2.5569 H   0  0  0  0  0  0  0  0  0  0  0  0
  1  3  2  0  0  0  0
  1  5  1  0  0  0  0
  2  4  1  0  0  0  0
  2  5  2  0  0  0  0
  3  6  1  0  0  0  0
  4  6  2  0  0  0  0
  5  7  1  0  0  0  0
  6 16  1  0  0  0  0
  7 18  2  0  0  0  0
  7 19  1  0  0  0  0
  8 11  1  0  0  0  0
  9 17  1  0  0  0  0
 10 17  1  0  0  0  0
 11 12  1  0  0  0  0
 12 13  1  0  0  0  0
 13 16  1  0  0  0  0
 14 15  1  0  0  0  0
 14 17  1  0  0  0  0
 15 19  1  0  0  0  0
  1 20  1  0  0  0  0
  2 21  1  0  0  0  0
  3 22  1  0  0  0  0
  4 23  1  0  0  0  0
  8 24  1  0  0  0  0
  8 25  1  0  0  0  0
  8 26  1  0  0  0  0
  9 27  1  0  0  0  0
  9 28  1  0  0  0  0
  9 29  1  0  0  0  0
 10 30  1  0  0  0  0
 10 31  1  0  0  0  0
 10 32  1  0  0  0  0
 11 33  1  0  0  0  0
 11 34  1  0  0  0  0
 12 35  1  0  0  0  0
 12 36  1  0  0  0  0
 13 37  1  0  0  0  0
 13 38  1  0  0  0  0
 14 39  1  0  0  0  0
 14 40  1  0  0  0  0
 15 41  1  0  0  0  0
 15 42  1  0  0  0  0
 16 43  1  0  0  0  0
M  END
$$$$
