2-[1-methyl-5-(4-methylbenzoyl)pyrrol-2-yl]acetic acid
  -OEChem-02121815213D

 34 35  0     0  0  0  0  0  0999 V2000
    5.8333   -3.7932    0.5789 C   0  0  0  0  0  0  0  0  0  0  0  0
    4.0411   -3.3087    2.1250 C   0  0  0  0  0  0  0  0  0  0  0  0
    6.4100   -4.6504    1.5160 C   0  0  0  0  0  0  0  0  0  0  0  0
    4.6178   -4.1661    3.0621 C   0  0  0  0  0  0  0  0  0  0  0  0
    6.1506   -1.0198   -0.9575 C   0  0  0  0  0  0  0  0  0  0  0  0
    6.4988   -0.3617   -2.1628 C   0  0  0  0  0  0  0  0  0  0  0  0
    4.6488   -3.1223    0.8835 C   0  0  0  0  0  0  0  0  0  0  0  0
    5.8022   -4.8369    2.7576 C   0  0  0  0  0  0  0  0  0  0  0  0
    4.8575   -1.4738   -1.0955 C   0  0  0  0  0  0  0  0  0  0  0  0
    5.4078   -0.4335   -3.0006 C   0  0  0  0  0  0  0  0  0  0  0  0
    4.0464   -2.2285   -0.0930 C   0  0  0  0  0  0  0  0  0  0  0  0
    5.6464   -0.9296   -5.4118 C   0  0  0  0  0  0  0  0  0  0  0  0
    6.4187   -5.7546    3.7588 C   0  0  0  0  0  0  0  0  0  0  0  0
    3.1027   -1.4014   -2.8776 C   0  0  0  0  0  0  0  0  0  0  0  0
    5.2313    0.0878   -4.3718 C   0  0  0  0  0  0  0  0  0  0  0  0
    4.4159   -1.1115   -2.3412 N   0  0  0  0  0  0  0  0  0  0  0  0
    2.8171   -2.0677   -0.1183 O   0  0  0  0  0  0  0  0  0  0  0  0
    6.1564   -2.0104   -5.1449 O   0  0  0  0  0  0  0  0  0  0  0  0
    5.4355   -0.5002   -6.6813 O   0  0  0  0  0  0  0  0  0  0  0  0
    6.3147   -3.6549   -0.3856 H   0  0  0  0  0  0  0  0  0  0  0  0
    3.1181   -2.7912    2.3733 H   0  0  0  0  0  0  0  0  0  0  0  0
    7.3327   -5.1693    1.2702 H   0  0  0  0  0  0  0  0  0  0  0  0
    4.1372   -4.3058    4.0269 H   0  0  0  0  0  0  0  0  0  0  0  0
    6.7784   -1.1464   -0.0860 H   0  0  0  0  0  0  0  0  0  0  0  0
    7.4431    0.1122   -2.3925 H   0  0  0  0  0  0  0  0  0  0  0  0
    7.1201   -5.2056    4.3989 H   0  0  0  0  0  0  0  0  0  0  0  0
    5.6555   -6.2187    4.3968 H   0  0  0  0  0  0  0  0  0  0  0  0
    6.9624   -6.5723    3.2679 H   0  0  0  0  0  0  0  0  0  0  0  0
    2.4407   -0.5719   -2.6154 H   0  0  0  0  0  0  0  0  0  0  0  0
    3.1687   -1.5092   -3.9638 H   0  0  0  0  0  0  0  0  0  0  0  0
    2.7348   -2.3366   -2.4466 H   0  0  0  0  0  0  0  0  0  0  0  0
    5.7865    1.0244   -4.5434 H   0  0  0  0  0  0  0  0  0  0  0  0
    4.1805    0.3518   -4.5776 H   0  0  0  0  0  0  0  0  0  0  0  0
    5.7214   -1.1192   -7.3866 H   0  0  0  0  0  0  0  0  0  0  0  0
  1  3  2  0  0  0  0
  1  7  1  0  0  0  0
  2  4  1  0  0  0  0
  2  7  2  0  0  0  0
  3  8  1  0  0  0  0
  4  8  2  0  0  0  0
  5  6  1  0  0  0  0
  5  9  2  0  0  0  0
  6 10  2  0  0  0  0
  7 11  1  0  0  0  0
  8 13  1  0  0  0  0
  9 11  1  0  0  0  0
  9 16  1  0  0  0  0
 10 15  1  0  0  0  0
 10 16  1  0  0  0  0
 11 17  2  0  0  0  0
 12 15  1  0  0  0  0
 12 18  2  0  0  0  0
 12 19  1  0  0  0  0
 14 16  1  0  0  0  0
  1 20  1  0  0  0  0
  2 21  1  0  0  0  0
  3 22  1  0  0  0  0
  4 23  1  0  0  0  0
  5 24  1  0  0  0  0
  6 25  1  0  0  0  0
 13 26  1  0  0  0  0
 13 27  1  0  0  0  0
 13 28  1  0  0  0  0
 14 29  1  0  0  0  0
 14 30  1  0  0  0  0
 14 31  1  0  0  0  0
 15 32  1  0  0  0  0
 15 33  1  0  0  0  0
 19 34  1  0  0  0  0
M  END
$$$$
