6-chloro-3-(dichloromethyl)-1,1-dioxo-3,4-dihydro-2~{H}-1$l^{6},2,4-benzothiadia
  -OEChem-02121815213D

 28 29  0     1  0  0  0  0  0999 V2000
    2.5904   -2.2009   -0.1366 C   0  0  0  0  0  0  0  0  0  0  0  0
    0.3401   -1.6081    1.3888 C   0  0  0  0  0  0  0  0  0  0  0  0
    2.3171   -3.0012    0.9857 C   0  0  0  0  0  0  0  0  0  0  0  0
    1.1764   -2.6755    1.7313 C   0  0  0  0  0  0  0  0  0  0  0  0
    0.6409   -0.8326    0.2740 C   0  0  0  0  0  0  0  0  0  0  0  0
    1.7660   -1.1280   -0.4893 C   0  0  0  0  0  0  0  0  0  0  0  0
    2.9822   -4.9743    2.3811 C   0  0  2  0  0  0  0  0  0  0  0  0
    3.9281   -4.6112    3.5174 C   0  0  0  0  0  0  0  0  0  0  0  0
    3.1579   -4.0636    1.2656 N   0  0  0  0  0  0  0  0  0  0  0  0
    1.5857   -5.0693    2.8595 N   0  0  0  0  0  0  0  0  0  0  0  0
    0.3038    1.7638    0.7724 N   0  0  0  0  0  0  0  0  0  0  0  0
    1.3118   -2.9310    4.2929 O   0  0  0  0  0  0  0  0  0  0  0  0
   -0.6796   -3.9035    3.0779 O   0  0  0  0  0  0  0  0  0  0  0  0
   -0.2968    0.7852   -1.5357 O   0  0  0  0  0  0  0  0  0  0  0  0
   -1.7343    0.2204    0.4549 O   0  0  0  0  0  0  0  0  0  0  0  0
    0.7403   -3.6199    3.1534 S   0  0  0  0  0  0  0  0  0  0  0  0
   -0.4261    0.5009   -0.1153 S   0  0  0  0  0  0  0  0  0  0  0  0
    2.1922   -0.1969   -1.8802 Cl  0  0  0  0  0  0  0  0  0  0  0  0
    5.6118   -4.6859    2.9569 Cl  0  0  0  0  0  0  0  0  0  0  0  0
    3.6893   -5.7168    4.8868 Cl  0  0  0  0  0  0  0  0  0  0  0  0
    3.4670   -2.4246   -0.7451 H   0  0  0  0  0  0  0  0  0  0  0  0
   -0.5404   -1.3849    1.9865 H   0  0  0  0  0  0  0  0  0  0  0  0
    3.2827   -6.0116    2.0271 H   0  0  0  0  0  0  0  0  0  0  0  0
    3.7306   -3.5956    3.8632 H   0  0  0  0  0  0  0  0  0  0  0  0
    3.8234   -4.3377    0.5309 H   0  0  0  0  0  0  0  0  0  0  0  0
    1.0324   -5.8437    2.4178 H   0  0  0  0  0  0  0  0  0  0  0  0
    0.7980    2.4965    0.2487 H   0  0  0  0  0  0  0  0  0  0  0  0
   -0.1836    2.1081    1.6086 H   0  0  0  0  0  0  0  0  0  0  0  0
  1  3  1  0  0  0  0
  1  6  2  0  0  0  0
  2  4  1  0  0  0  0
  2  5  2  0  0  0  0
  3  4  2  0  0  0  0
  3  9  1  0  0  0  0
  4 16  1  0  0  0  0
  5  6  1  0  0  0  0
  5 17  1  0  0  0  0
  6 18  1  0  0  0  0
  7  8  1  0  0  0  0
  7  9  1  0  0  0  0
  7 10  1  0  0  0  0
  8 19  1  0  0  0  0
  8 20  1  0  0  0  0
 10 16  1  0  0  0  0
 11 17  1  0  0  0  0
 12 16  2  0  0  0  0
 13 16  2  0  0  0  0
 14 17  2  0  0  0  0
 15 17  2  0  0  0  0
  1 21  1  0  0  0  0
  2 22  1  0  0  0  0
  7 23  1  0  0  0  0
  8 24  1  0  0  0  0
  9 25  1  0  0  0  0
 10 26  1  0  0  0  0
 11 27  1  0  0  0  0
 11 28  1  0  0  0  0
M  END
$$$$
