3-(5,6-dihydrobenzo[b][1]benzazepin-11-yl)-~{N},~{N},2-trimethyl-propan-1-amine
  -OEChem-02121815213D

 48 50  0     1  0  0  0  0  0999 V2000
   -1.1470    3.7048    7.8095 C   0  0  0  0  0  0  0  0  0  0  0  0
   -0.4539    0.1879    0.9683 C   0  0  0  0  0  0  0  0  0  0  0  0
   -1.7498    2.5022    8.1235 C   0  0  0  0  0  0  0  0  0  0  0  0
   -0.6418   -0.8539    1.8657 C   0  0  0  0  0  0  0  0  0  0  0  0
   -0.9185    4.0188    6.4753 C   0  0  0  0  0  0  0  0  0  0  0  0
   -0.8488    1.4761    1.3172 C   0  0  0  0  0  0  0  0  0  0  0  0
   -2.1094    1.6197    7.1019 C   0  0  0  0  0  0  0  0  0  0  0  0
   -1.2261   -0.6042    3.1089 C   0  0  0  0  0  0  0  0  0  0  0  0
   -1.2946    3.1469    5.4231 C   0  0  0  0  0  0  0  0  0  0  0  0
   -1.4362    1.7353    2.5686 C   0  0  0  0  0  0  0  0  0  0  0  0
   -1.8938    1.8998    5.7257 C   0  0  0  0  0  0  0  0  0  0  0  0
   -1.6360    0.6925    3.4885 C   0  0  0  0  0  0  0  0  0  0  0  0
   -0.9933    3.6752    4.0365 C   0  0  0  0  0  0  0  0  0  0  0  0
   -1.8579    3.1355    2.9088 C   0  0  0  0  0  0  0  0  0  0  0  0
   -5.4178   -0.4630    6.3171 C   0  0  0  0  0  0  0  0  0  0  0  0
   -7.5782    1.6829    3.5397 C   0  0  0  0  0  0  0  0  0  0  0  0
   -6.3654    3.0498    5.0996 C   0  0  0  0  0  0  0  0  0  0  0  0
   -3.2295   -0.0986    5.1321 C   0  0  0  0  0  0  0  0  0  0  0  0
   -5.3849    1.0216    4.2641 C   0  0  0  0  0  0  0  0  0  0  0  0
   -4.5923    0.5263    5.4865 C   0  0  1  0  0  0  0  0  0  0  0  0
   -2.2367    0.9198    4.7537 N   0  0  0  0  0  0  0  0  0  0  0  0
   -6.6144    1.6742    4.6483 N   0  0  0  0  0  0  0  0  0  0  0  0
   -0.8538    4.3959    8.5933 H   0  0  0  0  0  0  0  0  0  0  0  0
   -0.0001    0.0003   -0.0001 H   0  0  0  0  0  0  0  0  0  0  0  0
   -1.9314    2.2357    9.1604 H   0  0  0  0  0  0  0  0  0  0  0  0
   -0.3330   -1.8615    1.6037 H   0  0  0  0  0  0  0  0  0  0  0  0
   -0.4427    4.9714    6.2468 H   0  0  0  0  0  0  0  0  0  0  0  0
   -0.6950    2.2831    0.6047 H   0  0  0  0  0  0  0  0  0  0  0  0
   -2.5438    0.6740    7.4201 H   0  0  0  0  0  0  0  0  0  0  0  0
   -1.3437   -1.4429    3.7921 H   0  0  0  0  0  0  0  0  0  0  0  0
   -1.1443    4.7634    4.0475 H   0  0  0  0  0  0  0  0  0  0  0  0
    0.0710    3.5048    3.8265 H   0  0  0  0  0  0  0  0  0  0  0  0
   -1.7375    3.7825    2.0307 H   0  0  0  0  0  0  0  0  0  0  0  0
   -2.9252    3.1596    3.1616 H   0  0  0  0  0  0  0  0  0  0  0  0
   -5.6484   -1.3723    5.7523 H   0  0  0  0  0  0  0  0  0  0  0  0
   -6.3626   -0.0104    6.6362 H   0  0  0  0  0  0  0  0  0  0  0  0
   -4.8707   -0.7595    7.2186 H   0  0  0  0  0  0  0  0  0  0  0  0
   -7.7681    0.6617    3.1990 H   0  0  0  0  0  0  0  0  0  0  0  0
   -7.1857    2.2661    2.7023 H   0  0  0  0  0  0  0  0  0  0  0  0
   -8.5231    2.1272    3.8638 H   0  0  0  0  0  0  0  0  0  0  0  0
   -5.6487    3.0505    5.9249 H   0  0  0  0  0  0  0  0  0  0  0  0
   -7.2965    3.5097    5.4417 H   0  0  0  0  0  0  0  0  0  0  0  0
   -5.9591    3.6487    4.2801 H   0  0  0  0  0  0  0  0  0  0  0  0
   -2.8458   -0.6551    5.9953 H   0  0  0  0  0  0  0  0  0  0  0  0
   -3.3352   -0.8161    4.3109 H   0  0  0  0  0  0  0  0  0  0  0  0
   -4.7760    1.7261    3.6866 H   0  0  0  0  0  0  0  0  0  0  0  0
   -5.6187    0.1873    3.5942 H   0  0  0  0  0  0  0  0  0  0  0  0
   -4.4077    1.4019    6.1245 H   0  0  0  0  0  0  0  0  0  0  0  0
  1  3  1  0  0  0  0
  1  5  2  0  0  0  0
  2  4  2  0  0  0  0
  2  6  1  0  0  0  0
  3  7  2  0  0  0  0
  4  8  1  0  0  0  0
  5  9  1  0  0  0  0
  6 10  2  0  0  0  0
  7 11  1  0  0  0  0
  8 12  2  0  0  0  0
  9 11  2  0  0  0  0
  9 13  1  0  0  0  0
 10 12  1  0  0  0  0
 10 14  1  0  0  0  0
 11 21  1  0  0  0  0
 12 21  1  0  0  0  0
 13 14  1  0  0  0  0
 15 20  1  0  0  0  0
 16 22  1  0  0  0  0
 17 22  1  0  0  0  0
 18 20  1  0  0  0  0
 18 21  1  0  0  0  0
 19 20  1  0  0  0  0
 19 22  1  0  0  0  0
  1 23  1  0  0  0  0
  2 24  1  0  0  0  0
  3 25  1  0  0  0  0
  4 26  1  0  0  0  0
  5 27  1  0  0  0  0
  6 28  1  0  0  0  0
  7 29  1  0  0  0  0
  8 30  1  0  0  0  0
 13 31  1  0  0  0  0
 13 32  1  0  0  0  0
 14 33  1  0  0  0  0
 14 34  1  0  0  0  0
 15 35  1  0  0  0  0
 15 36  1  0  0  0  0
 15 37  1  0  0  0  0
 16 38  1  0  0  0  0
 16 39  1  0  0  0  0
 16 40  1  0  0  0  0
 17 41  1  0  0  0  0
 17 42  1  0  0  0  0
 17 43  1  0  0  0  0
 18 44  1  0  0  0  0
 18 45  1  0  0  0  0
 19 46  1  0  0  0  0
 19 47  1  0  0  0  0
 20 48  1  0  0  0  0
M  END
$$$$
