@<TRIPOS>MOLECULE
*****
   44    45     0     0     0
SMALL
NO_CHARGES

@<TRIPOS>ATOM
      1 C1         -0.8331    0.1931   -1.2884 C.ar      1 <0>         0.0000
      2 C2         -1.1561   -1.0594   -0.7663 C.ar      1 <0>         0.0000
      3 C3         -0.8352    0.3950   -2.6686 C.ar      1 <0>         0.0000
      4 C4         -1.4831   -1.9081   -3.0046 C.ar      1 <0>         0.0000
      5 C5         -1.4811   -2.1100   -1.6244 C.ar      1 <0>         0.0000
      6 C6         -1.1602   -0.6556   -3.5267 C.ar      1 <0>         0.0000
      7 C7          0.1228   -5.6243   -1.8817 C.3       1 <0>         0.0000
      8 C8         -0.9690   -5.1553   -2.8342 C.3       1 <0>         0.0000
      9 C9          0.4946   -4.5407   -0.8752 C.3       1 <0>         0.0000
     10 C10        -2.1815   -4.5846   -2.0954 C.3       1 <0>         0.0000
     11 C11        -0.7207   -4.0236   -0.0840 C.3       1 <0>         0.0000
     12 C12        -1.8365   -3.4902   -1.0489 C.3       1 <0>         0.0000
     13 C13        -1.1471   -3.8605    2.9602 C.3       1 <0>         0.0000
     14 C14        -2.9217   -5.4310    2.5644 C.3       1 <0>         0.0000
     15 C15        -1.5043   -1.5753   -5.6926 C.3       1 <0>         0.0000
     16 C16        -1.2214   -5.0951    0.9005 C.3       1 <0>         0.0000
     17 N1         -1.9956   -4.4774    1.9201 N.3       1 <0>         0.0000
     18 O1         -3.0383   -3.2408   -0.2975 O.3       1 <0>         0.0000
     19 O2         -1.1627   -0.4583   -4.8735 O.3       1 <0>         0.0000
     20 H1         -0.5806    1.0111   -0.6203 H         1 <0>         0.0000
     21 H2         -1.1514   -1.2073    0.3104 H         1 <0>         0.0000
     22 H3         -0.5827    1.3729   -3.0690 H         1 <0>         0.0000
     23 H4         -1.7358   -2.7254   -3.6760 H         1 <0>         0.0000
     24 H5         -0.2132   -6.5216   -1.3497 H         1 <0>         0.0000
     25 H6          1.0127   -5.9101   -2.4560 H         1 <0>         0.0000
     26 H7         -0.5604   -4.3871   -3.5086 H         1 <0>         0.0000
     27 H8         -1.2820   -5.9896   -3.4811 H         1 <0>         0.0000
     28 H9          1.2598   -4.9310   -0.1880 H         1 <0>         0.0000
     29 H10         0.9663   -3.7059   -1.4140 H         1 <0>         0.0000
     30 H11        -2.8921   -4.1807   -2.8403 H         1 <0>         0.0000
     31 H12        -2.7044   -5.4225   -1.6000 H         1 <0>         0.0000
     32 H13        -0.3692   -3.1587    0.5263 H         1 <0>         0.0000
     33 H14        -0.4523   -3.1497    2.5055 H         1 <0>         0.0000
     34 H15        -0.5719   -4.6291    3.4836 H         1 <0>         0.0000
     35 H16        -1.7670   -3.3302    3.6882 H         1 <0>         0.0000
     36 H17        -3.5608   -5.9006    1.8122 H         1 <0>         0.0000
     37 H18        -3.5546   -4.9120    3.2895 H         1 <0>         0.0000
     38 H19        -2.3595   -6.2109    3.0850 H         1 <0>         0.0000
     39 H20        -1.4679   -1.2815   -6.7445 H         1 <0>         0.0000
     40 H21        -2.5077   -1.9238   -5.4351 H         1 <0>         0.0000
     41 H22        -0.7853   -2.3787   -5.5160 H         1 <0>         0.0000
     42 H23        -0.3628   -5.5806    1.3389 H         1 <0>         0.0000
     43 H24        -1.8309   -5.8018    0.3587 H         1 <0>         0.0000
     44 H25        -3.6947   -2.9030   -0.9272 H         1 <0>         0.0000
@<TRIPOS>BOND
     1    1    2 ar
     2    1    3 ar
     3    2    5 ar
     4    3    6 ar
     5    4    5 ar
     6    4    6 ar
     7    5   12 1
     8    6   19 1
     9    7    8 1
    10    7    9 1
    11    8   10 1
    12    9   11 1
    13   10   12 1
    14   11   12 1
    15   11   16 1
    16   12   18 1
    17   13   17 1
    18   14   17 1
    19   15   19 1
    20   16   17 1
    21    1   20 1
    22    2   21 1
    23    3   22 1
    24    4   23 1
    25    7   24 1
    26    7   25 1
    27    8   26 1
    28    8   27 1
    29    9   28 1
    30    9   29 1
    31   10   30 1
    32   10   31 1
    33   11   32 1
    34   13   33 1
    35   13   34 1
    36   13   35 1
    37   14   36 1
    38   14   37 1
    39   14   38 1
    40   15   39 1
    41   15   40 1
    42   15   41 1
    43   16   42 1
    44   16   43 1
    45   18   44 1
@<TRIPOS>MOLECULE
*****
   44    45     0     0     0
SMALL
NO_CHARGES

@<TRIPOS>ATOM
      1 C1         -0.9071    0.1723   -1.4944 C.ar      1 <0>         0.0000
      2 C2         -1.1936   -1.0573   -0.9014 C.ar      1 <0>         0.0000
      3 C3         -0.9250    0.2977   -2.8836 C.ar      1 <0>         0.0000
      4 C4         -1.5156   -2.0361   -3.0867 C.ar      1 <0>         0.0000
      5 C5         -1.4978   -2.1615   -1.6976 C.ar      1 <0>         0.0000
      6 C6         -1.2292   -0.8065   -3.6797 C.ar      1 <0>         0.0000
      7 C7          0.1946   -5.6428   -1.7761 C.3       1 <0>         0.0000
      8 C8         -0.9162   -5.2549   -2.7429 C.3       1 <0>         0.0000
      9 C9          0.5459   -4.4962   -0.8340 C.3       1 <0>         0.0000
     10 C10        -2.1374   -4.6754   -2.0257 C.3       1 <0>         0.0000
     11 C11        -0.6763   -3.9674   -0.0615 C.3       1 <0>         0.0000
     12 C12        -1.8129   -3.5165   -1.0440 C.3       1 <0>         0.0000
     13 C13        -1.0835   -3.6477    2.9730 C.3       1 <0>         0.0000
     14 C14        -2.8198   -5.2823    2.6802 C.3       1 <0>         0.0000
     15 C15        -0.9455    0.6020   -5.5748 C.3       1 <0>         0.0000
     16 C16        -1.1415   -4.9954    0.9849 C.3       1 <0>         0.0000
     17 N1         -1.9236   -4.3424    1.9761 N.3       1 <0>         0.0000
     18 O1         -3.0149   -3.2568   -0.2966 O.3       1 <0>         0.0000
     19 O2         -1.2472   -0.6838   -5.0352 O.3       1 <0>         0.0000
     20 H1         -0.6708    1.0320   -0.8745 H         1 <0>         0.0000
     21 H2         -1.1768   -1.1455    0.1816 H         1 <0>         0.0000
     22 H3         -0.7010    1.2581   -3.3393 H         1 <0>         0.0000
     23 H4         -1.7522   -2.8954   -3.7100 H         1 <0>         0.0000
     24 H5         -0.1139   -6.5176   -1.1926 H         1 <0>         0.0000
     25 H6          1.0872   -5.9370   -2.3419 H         1 <0>         0.0000
     26 H7         -0.5329   -4.5149   -3.4623 H         1 <0>         0.0000
     27 H8         -1.2124   -6.1313   -3.3402 H         1 <0>         0.0000
     28 H9          1.3262   -4.8285   -0.1334 H         1 <0>         0.0000
     29 H10         0.9916   -3.6806   -1.4221 H         1 <0>         0.0000
     30 H11        -2.8639   -4.3313   -2.7852 H         1 <0>         0.0000
     31 H12        -2.6346   -5.4978   -1.4803 H         1 <0>         0.0000
     32 H13        -0.3426   -3.0615    0.4972 H         1 <0>         0.0000
     33 H14        -0.4108   -2.9455    2.4736 H         1 <0>         0.0000
     34 H15        -0.4845   -4.3713    3.5326 H         1 <0>         0.0000
     35 H16        -1.7113   -3.0940    3.6763 H         1 <0>         0.0000
     36 H17        -3.4523   -5.8087    1.9606 H         1 <0>         0.0000
     37 H18        -3.4603   -4.7404    3.3813 H         1 <0>         0.0000
     38 H19        -2.2335   -6.0177    3.2376 H         1 <0>         0.0000
     39 H20        -0.9949    0.5609   -6.6657 H         1 <0>         0.0000
     40 H21         0.0545    0.9065   -5.2559 H         1 <0>         0.0000
     41 H22        -1.6788    1.3232   -5.2061 H         1 <0>         0.0000
     42 H23        -0.2673   -5.4340    1.4415 H         1 <0>         0.0000
     43 H24        -1.7366   -5.7461    0.4883 H         1 <0>         0.0000
     44 H25        -3.6847   -2.9710   -0.9378 H         1 <0>         0.0000
@<TRIPOS>BOND
     1    1    2 ar
     2    1    3 ar
     3    2    5 ar
     4    3    6 ar
     5    4    5 ar
     6    4    6 ar
     7    5   12 1
     8    6   19 1
     9    7    8 1
    10    7    9 1
    11    8   10 1
    12    9   11 1
    13   10   12 1
    14   11   12 1
    15   11   16 1
    16   12   18 1
    17   13   17 1
    18   14   17 1
    19   15   19 1
    20   16   17 1
    21    1   20 1
    22    2   21 1
    23    3   22 1
    24    4   23 1
    25    7   24 1
    26    7   25 1
    27    8   26 1
    28    8   27 1
    29    9   28 1
    30    9   29 1
    31   10   30 1
    32   10   31 1
    33   11   32 1
    34   13   33 1
    35   13   34 1
    36   13   35 1
    37   14   36 1
    38   14   37 1
    39   14   38 1
    40   15   39 1
    41   15   40 1
    42   15   41 1
    43   16   42 1
    44   16   43 1
    45   18   44 1
@<TRIPOS>MOLECULE
*****
   44    45     0     0     0
SMALL
NO_CHARGES

@<TRIPOS>ATOM
      1 C1         -1.2805   -1.0636   -4.2087 C.ar      1 <0>         0.0000
      2 C2         -1.5425   -2.2528   -3.5284 C.ar      1 <0>         0.0000
      3 C3         -0.9895    0.0989   -3.4947 C.ar      1 <0>         0.0000
      4 C4         -1.2226   -1.1171   -1.4201 C.ar      1 <0>         0.0000
      5 C5         -1.5136   -2.2795   -2.1341 C.ar      1 <0>         0.0000
      6 C6         -0.9606    0.0721   -2.1004 C.ar      1 <0>         0.0000
      7 C7          0.2341   -5.7309   -1.9801 C.3       1 <0>         0.0000
      8 C8         -0.8888   -5.4294   -2.9637 C.3       1 <0>         0.0000
      9 C9          0.5727   -4.5155   -1.1235 C.3       1 <0>         0.0000
     10 C10        -2.1147   -4.8199   -2.2800 C.3       1 <0>         0.0000
     11 C11        -0.6530   -3.9527   -0.3812 C.3       1 <0>         0.0000
     12 C12        -1.8028   -3.5899   -1.3846 C.3       1 <0>         0.0000
     13 C13        -1.0466   -3.4265    2.6262 C.3       1 <0>         0.0000
     14 C14        -2.7581   -5.1045    2.4617 C.3       1 <0>         0.0000
     15 C15        -0.6632    1.1080    0.0195 C.3       1 <0>         0.0000
     16 C16        -1.0952   -4.9116    0.7383 C.3       1 <0>         0.0000
     17 N1         -1.8816   -4.2027    1.6867 N.3       1 <0>         0.0000
     18 O1         -3.0042   -3.2969   -0.6486 O.3       1 <0>         0.0000
     19 O2         -0.6760    1.2063   -1.4037 O.3       1 <0>         0.0000
     20 H1         -1.3025   -1.0430   -5.2942 H         1 <0>         0.0000
     21 H2         -1.7687   -3.1533   -4.0933 H         1 <0>         0.0000
     22 H3         -0.7863    1.0219   -4.0305 H         1 <0>         0.0000
     23 H4         -1.1997   -1.1349   -0.3330 H         1 <0>         0.0000
     24 H5         -0.0568   -6.5672   -1.3343 H         1 <0>         0.0000
     25 H6          1.1278   -6.0502   -2.5303 H         1 <0>         0.0000
     26 H7         -0.5219   -4.7360   -3.7360 H         1 <0>         0.0000
     27 H8         -1.1746   -6.3502   -3.4956 H         1 <0>         0.0000
     28 H9          1.3626   -4.7853   -0.4070 H         1 <0>         0.0000
     29 H10         1.0016   -3.7364   -1.7707 H         1 <0>         0.0000
     30 H11        -2.8513   -4.5416   -3.0565 H         1 <0>         0.0000
     31 H12        -2.5953   -5.6095   -1.6745 H         1 <0>         0.0000
     32 H13        -0.3305   -3.0046    0.1100 H         1 <0>         0.0000
     33 H14        -0.3884   -2.7508    2.0738 H         1 <0>         0.0000
     34 H15        -0.4326   -4.0995    3.2309 H         1 <0>         0.0000
     35 H16        -1.6788   -2.8345    3.2934 H         1 <0>         0.0000
     36 H17        -3.3865   -5.6901    1.7856 H         1 <0>         0.0000
     37 H18        -3.4029   -4.5246    3.1277 H         1 <0>         0.0000
     38 H19        -2.1567   -5.7896    3.0652 H         1 <0>         0.0000
     39 H20        -0.4229    2.0829    0.4507 H         1 <0>         0.0000
     40 H21         0.0797    0.3681    0.3279 H         1 <0>         0.0000
     41 H22        -1.6517    0.7940    0.3630 H         1 <0>         0.0000
     42 H23        -0.2112   -5.3033    1.2182 H         1 <0>         0.0000
     43 H24        -1.6812   -5.7046    0.3000 H         1 <0>         0.0000
     44 H25        -3.6824   -3.0675   -1.3034 H         1 <0>         0.0000
@<TRIPOS>BOND
     1    1    2 ar
     2    1    3 ar
     3    2    5 ar
     4    3    6 ar
     5    4    5 ar
     6    4    6 ar
     7    5   12 1
     8    6   19 1
     9    7    8 1
    10    7    9 1
    11    8   10 1
    12    9   11 1
    13   10   12 1
    14   11   12 1
    15   11   16 1
    16   12   18 1
    17   13   17 1
    18   14   17 1
    19   15   19 1
    20   16   17 1
    21    1   20 1
    22    2   21 1
    23    3   22 1
    24    4   23 1
    25    7   24 1
    26    7   25 1
    27    8   26 1
    28    8   27 1
    29    9   28 1
    30    9   29 1
    31   10   30 1
    32   10   31 1
    33   11   32 1
    34   13   33 1
    35   13   34 1
    36   13   35 1
    37   14   36 1
    38   14   37 1
    39   14   38 1
    40   15   39 1
    41   15   40 1
    42   15   41 1
    43   16   42 1
    44   16   43 1
    45   18   44 1
@<TRIPOS>MOLECULE
*****
   44    45     0     0     0
SMALL
NO_CHARGES

@<TRIPOS>ATOM
      1 C1         -2.1898   -0.8855   -3.8231 C.ar      1 <0>         0.0000
      2 C2         -2.0210   -2.2409   -3.5405 C.ar      1 <0>         0.0000
      3 C3         -1.6434    0.0773   -2.9744 C.ar      1 <0>         0.0000
      4 C4         -0.7596   -1.6709   -1.5603 C.ar      1 <0>         0.0000
      5 C5         -1.3059   -2.6337   -2.4091 C.ar      1 <0>         0.0000
      6 C6         -0.9284   -0.3155   -1.8430 C.ar      1 <0>         0.0000
      7 C7          0.4924   -6.3613   -0.9538 C.3       1 <0>         0.0000
      8 C8          0.4451   -6.1179   -2.4564 C.3       1 <0>         0.0000
      9 C9         -0.7823   -5.8834   -0.2664 C.3       1 <0>         0.0000
     10 C10         0.1726   -4.6472   -2.7719 C.3       1 <0>         0.0000
     11 C11        -1.0792   -4.3993   -0.5627 C.3       1 <0>         0.0000
     12 C12        -1.1210   -4.1237   -2.0982 C.3       1 <0>         0.0000
     13 C13        -3.4627   -3.8460    2.2896 C.3       1 <0>         0.0000
     14 C14        -1.1020   -3.4404    2.1024 C.3       1 <0>         0.0000
     15 C15         0.3243    0.1529    0.1235 C.3       1 <0>         0.0000
     16 C16        -2.3823   -4.0068    0.1497 C.3       1 <0>         0.0000
     17 N1         -2.2366   -4.2079    1.5493 N.3       1 <0>         0.0000
     18 O1         -2.2138   -4.8883   -2.6330 O.3       1 <0>         0.0000
     19 O2         -0.3947    0.6241   -1.0151 O.3       1 <0>         0.0000
     20 H1         -2.7461   -0.5798   -4.7043 H         1 <0>         0.0000
     21 H2         -2.4507   -2.9838   -4.2073 H         1 <0>         0.0000
     22 H3         -1.7784    1.1314   -3.2001 H         1 <0>         0.0000
     23 H4         -0.2019   -1.9742   -0.6773 H         1 <0>         0.0000
     24 H5          0.6379   -7.4298   -0.7582 H         1 <0>         0.0000
     25 H6          1.3564   -5.8392   -0.5246 H         1 <0>         0.0000
     26 H7          1.3996   -6.4159   -2.9054 H         1 <0>         0.0000
     27 H8         -0.3259   -6.7504   -2.9120 H         1 <0>         0.0000
     28 H9         -1.6242   -6.5112   -0.5835 H         1 <0>         0.0000
     29 H10        -0.6761   -6.0283    0.8158 H         1 <0>         0.0000
     30 H11         1.0352   -4.0486   -2.4490 H         1 <0>         0.0000
     31 H12         0.0976   -4.5392   -3.8618 H         1 <0>         0.0000
     32 H13        -0.2673   -3.8022   -0.1215 H         1 <0>         0.0000
     33 H14        -4.3171   -4.4032    1.8966 H         1 <0>         0.0000
     34 H15        -3.6635   -2.7761    2.1882 H         1 <0>         0.0000
     35 H16        -3.3469   -4.0818    3.3509 H         1 <0>         0.0000
     36 H17        -0.1820   -3.6926    1.5686 H         1 <0>         0.0000
     37 H18        -0.9690   -3.6733    3.1623 H         1 <0>         0.0000
     38 H19        -1.2856   -2.3675    1.9996 H         1 <0>         0.0000
     39 H20         0.6965    1.0045    0.6983 H         1 <0>         0.0000
     40 H21         1.1590   -0.4718   -0.2043 H         1 <0>         0.0000
     41 H22        -0.3482   -0.4395    0.7484 H         1 <0>         0.0000
     42 H23        -3.1768   -4.6327   -0.2274 H         1 <0>         0.0000
     43 H24        -2.5825   -2.9653   -0.0492 H         1 <0>         0.0000
     44 H25        -2.2136   -4.7403   -3.5919 H         1 <0>         0.0000
@<TRIPOS>BOND
     1    1    2 ar
     2    1    3 ar
     3    2    5 ar
     4    3    6 ar
     5    4    5 ar
     6    4    6 ar
     7    5   12 1
     8    6   19 1
     9    7    8 1
    10    7    9 1
    11    8   10 1
    12    9   11 1
    13   10   12 1
    14   11   12 1
    15   11   16 1
    16   12   18 1
    17   13   17 1
    18   14   17 1
    19   15   19 1
    20   16   17 1
    21    1   20 1
    22    2   21 1
    23    3   22 1
    24    4   23 1
    25    7   24 1
    26    7   25 1
    27    8   26 1
    28    8   27 1
    29    9   28 1
    30    9   29 1
    31   10   30 1
    32   10   31 1
    33   11   32 1
    34   13   33 1
    35   13   34 1
    36   13   35 1
    37   14   36 1
    38   14   37 1
    39   14   38 1
    40   15   39 1
    41   15   40 1
    42   15   41 1
    43   16   42 1
    44   16   43 1
    45   18   44 1
@<TRIPOS>MOLECULE
*****
   44    45     0     0     0
SMALL
NO_CHARGES

@<TRIPOS>ATOM
      1 C1         -1.2102   -1.0050   -4.0787 C.ar      1 <0>         0.0000
      2 C2         -1.5042   -2.2075   -3.4360 C.ar      1 <0>         0.0000
      3 C3         -0.9351    0.1380   -3.3280 C.ar      1 <0>         0.0000
      4 C4         -1.2481   -1.1241   -1.2918 C.ar      1 <0>         0.0000
      5 C5         -1.5232   -2.2671   -2.0426 C.ar      1 <0>         0.0000
      6 C6         -0.9541    0.0784   -1.9345 C.ar      1 <0>         0.0000
      7 C7          0.1923   -5.7354   -1.9107 C.3       1 <0>         0.0000
      8 C8         -0.8940   -5.4018   -2.9245 C.3       1 <0>         0.0000
      9 C9          0.5105   -4.5432   -1.0147 C.3       1 <0>         0.0000
     10 C10        -2.1380   -4.7983   -2.2688 C.3       1 <0>         0.0000
     11 C11        -0.7356   -3.9878   -0.3013 C.3       1 <0>         0.0000
     12 C12        -1.8477   -3.5922   -1.3345 C.3       1 <0>         0.0000
     13 C13        -1.2278   -3.5287    2.7025 C.3       1 <0>         0.0000
     14 C14        -2.9453   -5.1882    2.4403 C.3       1 <0>         0.0000
     15 C15        -0.3917    2.3892   -1.9234 C.3       1 <0>         0.0000
     16 C16        -1.2230   -4.9689    0.7795 C.3       1 <0>         0.0000
     17 N1         -2.0360   -4.2758    1.7171 N.3       1 <0>         0.0000
     18 O1         -3.0713   -3.3065   -0.6330 O.3       1 <0>         0.0000
     19 O2         -0.6850    1.1937   -1.2020 O.3       1 <0>         0.0000
     20 H1         -1.1949   -0.9589   -5.1636 H         1 <0>         0.0000
     21 H2         -1.7176   -3.0927   -4.0293 H         1 <0>         0.0000
     22 H3         -0.7068    1.0716   -3.8346 H         1 <0>         0.0000
     23 H4         -1.2625   -1.1675   -0.2052 H         1 <0>         0.0000
     24 H5         -0.1267   -6.5841   -1.2951 H         1 <0>         0.0000
     25 H6          1.1019   -6.0492   -2.4376 H         1 <0>         0.0000
     26 H7         -0.4957   -4.6936   -3.6673 H         1 <0>         0.0000
     27 H8         -1.1683   -6.3075   -3.4875 H         1 <0>         0.0000
     28 H9          1.2734   -4.8363   -0.2782 H         1 <0>         0.0000
     29 H10         0.9672   -3.7529   -1.6283 H         1 <0>         0.0000
     30 H11        -2.8455   -4.4958   -3.0630 H         1 <0>         0.0000
     31 H12        -2.6448   -5.5978   -1.6988 H         1 <0>         0.0000
     32 H13        -0.4230   -3.0541    0.2228 H         1 <0>         0.0000
     33 H14        -0.5461   -2.8458    2.1889 H         1 <0>         0.0000
     34 H15        -0.6399   -4.2207    3.3117 H         1 <0>         0.0000
     35 H16        -1.8781   -2.9472    3.3616 H         1 <0>         0.0000
     36 H17        -3.5545   -5.7526    1.7296 H         1 <0>         0.0000
     37 H18        -3.6081   -4.6187    3.0974 H         1 <0>         0.0000
     38 H19        -2.3700   -5.8922    3.0475 H         1 <0>         0.0000
     39 H20        -0.1962    3.2018   -1.2195 H         1 <0>         0.0000
     40 H21        -1.2380    2.6450   -2.5658 H         1 <0>         0.0000
     41 H22         0.4946    2.2236   -2.5405 H         1 <0>         0.0000
     42 H23        -0.3589   -5.3789    1.2798 H         1 <0>         0.0000
     43 H24        -1.7996   -5.7466    0.3029 H         1 <0>         0.0000
     44 H25        -3.7250   -3.0563   -1.3049 H         1 <0>         0.0000
@<TRIPOS>BOND
     1    1    2 ar
     2    1    3 ar
     3    2    5 ar
     4    3    6 ar
     5    4    5 ar
     6    4    6 ar
     7    5   12 1
     8    6   19 1
     9    7    8 1
    10    7    9 1
    11    8   10 1
    12    9   11 1
    13   10   12 1
    14   11   12 1
    15   11   16 1
    16   12   18 1
    17   13   17 1
    18   14   17 1
    19   15   19 1
    20   16   17 1
    21    1   20 1
    22    2   21 1
    23    3   22 1
    24    4   23 1
    25    7   24 1
    26    7   25 1
    27    8   26 1
    28    8   27 1
    29    9   28 1
    30    9   29 1
    31   10   30 1
    32   10   31 1
    33   11   32 1
    34   13   33 1
    35   13   34 1
    36   13   35 1
    37   14   36 1
    38   14   37 1
    39   14   38 1
    40   15   39 1
    41   15   40 1
    42   15   41 1
    43   16   42 1
    44   16   43 1
    45   18   44 1
@<TRIPOS>MOLECULE
*****
   44    45     0     0     0
SMALL
NO_CHARGES

@<TRIPOS>ATOM
      1 C1         -0.3811   -0.3558   -0.9538 C.ar      1 <0>         0.0000
      2 C2         -0.3721   -1.7484   -0.8762 C.ar      1 <0>         0.0000
      3 C3         -0.9945    0.2786   -2.0341 C.ar      1 <0>         0.0000
      4 C4         -1.5899   -1.8723   -2.9592 C.ar      1 <0>         0.0000
      5 C5         -0.9764   -2.5067   -1.8789 C.ar      1 <0>         0.0000
      6 C6         -1.5989   -0.4797   -3.0367 C.ar      1 <0>         0.0000
      7 C7          0.3434   -6.5872   -0.9542 C.3       1 <0>         0.0000
      8 C8          0.3948   -6.1197   -2.4027 C.3       1 <0>         0.0000
      9 C9         -0.9049   -6.0765   -0.2425 C.3       1 <0>         0.0000
     10 C10         0.2956   -4.5973   -2.4983 C.3       1 <0>         0.0000
     11 C11        -1.0279   -4.5410   -0.3178 C.3       1 <0>         0.0000
     12 C12        -0.9660   -4.0377   -1.7937 C.3       1 <0>         0.0000
     13 C13        -3.3533   -4.1741    2.5703 C.3       1 <0>         0.0000
     14 C14        -1.3377   -2.9092    2.2390 C.3       1 <0>         0.0000
     15 C15        -2.7966   -0.6963   -5.0799 C.3       1 <0>         0.0000
     16 C16        -2.3147   -4.1148    0.4046 C.3       1 <0>         0.0000
     17 N1         -2.0897   -4.1055    1.8082 N.3       1 <0>         0.0000
     18 O1         -2.1068   -4.5868   -2.4733 O.3       1 <0>         0.0000
     19 O2         -2.1981    0.1395   -4.0906 O.3       1 <0>         0.0000
     20 H1          0.0891    0.2345   -0.1729 H         1 <0>         0.0000
     21 H2          0.1087   -2.2338   -0.0310 H         1 <0>         0.0000
     22 H3         -0.9981    1.3637   -2.0887 H         1 <0>         0.0000
     23 H4         -2.0616   -2.4610   -3.7426 H         1 <0>         0.0000
     24 H5          0.3650   -7.6823   -0.9197 H         1 <0>         0.0000
     25 H6          1.2363   -6.2349   -0.4232 H         1 <0>         0.0000
     26 H7          1.3328   -6.4531   -2.8616 H         1 <0>         0.0000
     27 H8         -0.4162   -6.5869   -2.9738 H         1 <0>         0.0000
     28 H9         -1.7925   -6.5517   -0.6784 H         1 <0>         0.0000
     29 H10        -0.8671   -6.3914    0.8076 H         1 <0>         0.0000
     30 H11         1.2003   -4.1539   -2.0605 H         1 <0>         0.0000
     31 H12         0.2852   -4.3210   -3.5607 H         1 <0>         0.0000
     32 H13        -0.1794   -4.1110    0.2350 H         1 <0>         0.0000
     33 H14        -3.9275   -5.0535    2.2674 H         1 <0>         0.0000
     34 H15        -3.9551   -3.2801    2.3856 H         1 <0>         0.0000
     35 H16        -3.1454   -4.2413    3.6416 H         1 <0>         0.0000
     36 H17        -0.3969   -2.8379    1.6870 H         1 <0>         0.0000
     37 H18        -1.1150   -2.9673    3.3079 H         1 <0>         0.0000
     38 H19        -1.9248   -2.0061    2.0519 H         1 <0>         0.0000
     39 H20        -3.2381   -0.0757   -5.8635 H         1 <0>         0.0000
     40 H21        -3.5663   -1.3180   -4.6157 H         1 <0>         0.0000
     41 H22        -2.0272   -1.3375   -5.5163 H         1 <0>         0.0000
     42 H23        -3.0900   -4.8266    0.1649 H         1 <0>         0.0000
     43 H24        -2.5831   -3.1237    0.0728 H         1 <0>         0.0000
     44 H25        -2.0446   -4.2991   -3.3979 H         1 <0>         0.0000
@<TRIPOS>BOND
     1    1    2 ar
     2    1    3 ar
     3    2    5 ar
     4    3    6 ar
     5    4    5 ar
     6    4    6 ar
     7    5   12 1
     8    6   19 1
     9    7    8 1
    10    7    9 1
    11    8   10 1
    12    9   11 1
    13   10   12 1
    14   11   12 1
    15   11   16 1
    16   12   18 1
    17   13   17 1
    18   14   17 1
    19   15   19 1
    20   16   17 1
    21    1   20 1
    22    2   21 1
    23    3   22 1
    24    4   23 1
    25    7   24 1
    26    7   25 1
    27    8   26 1
    28    8   27 1
    29    9   28 1
    30    9   29 1
    31   10   30 1
    32   10   31 1
    33   11   32 1
    34   13   33 1
    35   13   34 1
    36   13   35 1
    37   14   36 1
    38   14   37 1
    39   14   38 1
    40   15   39 1
    41   15   40 1
    42   15   41 1
    43   16   42 1
    44   16   43 1
    45   18   44 1
@<TRIPOS>MOLECULE
*****
   44    45     0     0     0
SMALL
NO_CHARGES

@<TRIPOS>ATOM
      1 C1         -3.8202   -3.9199    0.2257 C.ar      1 <0>         0.0000
      2 C2         -3.0571   -4.1784   -0.9130 C.ar      1 <0>         0.0000
      3 C3         -3.2000   -3.8069    1.4700 C.ar      1 <0>         0.0000
      4 C4         -1.0537   -4.2110    0.4370 C.ar      1 <0>         0.0000
      5 C5         -1.6739   -4.3239   -0.8073 C.ar      1 <0>         0.0000
      6 C6         -1.8168   -3.9525    1.5757 C.ar      1 <0>         0.0000
      7 C7         -0.6335   -5.1066   -4.9969 C.3       1 <0>         0.0000
      8 C8         -0.5328   -6.2526   -3.9990 C.3       1 <0>         0.0000
      9 C9         -0.1582   -3.7902   -4.3912 C.3       1 <0>         0.0000
     10 C10        -1.2950   -5.9364   -2.7122 C.3       1 <0>         0.0000
     11 C11        -0.9151   -3.4425   -3.0933 C.3       1 <0>         0.0000
     12 C12        -0.8353   -4.6085   -2.0591 C.3       1 <0>         0.0000
     13 C13        -2.3923   -0.8382   -2.3855 C.3       1 <0>         0.0000
     14 C14        -0.6870   -0.5983   -0.7101 C.3       1 <0>         0.0000
     15 C15        -2.0516   -3.5759    3.9121 C.3       1 <0>         0.0000
     16 C16        -0.3651   -2.1181   -2.5430 C.3       1 <0>         0.0000
     17 N1         -1.3158   -1.5411   -1.6577 N.3       1 <0>         0.0000
     18 O1          0.5497   -4.7675   -1.7108 O.3       1 <0>         0.0000
     19 O2         -1.2116   -3.8416    2.7899 O.3       1 <0>         0.0000
     20 H1         -4.8970   -3.8061    0.1433 H         1 <0>         0.0000
     21 H2         -3.5492   -4.2652   -1.8781 H         1 <0>         0.0000
     22 H3         -3.7999   -3.6056    2.3531 H         1 <0>         0.0000
     23 H4          0.0245   -4.3243    0.5225 H         1 <0>         0.0000
     24 H5         -0.0371   -5.3394   -5.8863 H         1 <0>         0.0000
     25 H6         -1.6732   -5.0007   -5.3302 H         1 <0>         0.0000
     26 H7         -0.9399   -7.1658   -4.4484 H         1 <0>         0.0000
     27 H8          0.5201   -6.4579   -3.7726 H         1 <0>         0.0000
     28 H9          0.9206   -3.8461   -4.1999 H         1 <0>         0.0000
     29 H10        -0.3029   -2.9896   -5.1271 H         1 <0>         0.0000
     30 H11        -2.3695   -5.8944   -2.9367 H         1 <0>         0.0000
     31 H12        -1.1461   -6.7693   -2.0127 H         1 <0>         0.0000
     32 H13        -1.9709   -3.2792   -3.3564 H         1 <0>         0.0000
     33 H14        -2.8728   -1.5180   -3.0939 H         1 <0>         0.0000
     34 H15        -1.9828    0.0126   -2.9368 H         1 <0>         0.0000
     35 H16        -3.1459   -0.4711   -1.6836 H         1 <0>         0.0000
     36 H17         0.1142   -1.0977   -0.1593 H         1 <0>         0.0000
     37 H18        -1.4283   -0.2295    0.0040 H         1 <0>         0.0000
     38 H19        -0.2652    0.2543   -1.2491 H         1 <0>         0.0000
     39 H20        -1.4425   -3.5117    4.8170 H         1 <0>         0.0000
     40 H21        -2.7900   -4.3753    4.0130 H         1 <0>         0.0000
     41 H22        -2.5661   -2.6252    3.7538 H         1 <0>         0.0000
     42 H23        -0.1903   -1.4519   -3.3742 H         1 <0>         0.0000
     43 H24         0.5512   -2.3212   -2.0105 H         1 <0>         0.0000
     44 H25         0.5974   -5.5154   -1.0946 H         1 <0>         0.0000
@<TRIPOS>BOND
     1    1    2 ar
     2    1    3 ar
     3    2    5 ar
     4    3    6 ar
     5    4    5 ar
     6    4    6 ar
     7    5   12 1
     8    6   19 1
     9    7    8 1
    10    7    9 1
    11    8   10 1
    12    9   11 1
    13   10   12 1
    14   11   12 1
    15   11   16 1
    16   12   18 1
    17   13   17 1
    18   14   17 1
    19   15   19 1
    20   16   17 1
    21    1   20 1
    22    2   21 1
    23    3   22 1
    24    4   23 1
    25    7   24 1
    26    7   25 1
    27    8   26 1
    28    8   27 1
    29    9   28 1
    30    9   29 1
    31   10   30 1
    32   10   31 1
    33   11   32 1
    34   13   33 1
    35   13   34 1
    36   13   35 1
    37   14   36 1
    38   14   37 1
    39   14   38 1
    40   15   39 1
    41   15   40 1
    42   15   41 1
    43   16   42 1
    44   16   43 1
    45   18   44 1
@<TRIPOS>MOLECULE
*****
   44    45     0     0     0
SMALL
NO_CHARGES

@<TRIPOS>ATOM
      1 C1         -3.0023   -3.0451   -3.4270 C.ar      1 <0>         0.0000
      2 C2         -2.7157   -3.5376   -2.1539 C.ar      1 <0>         0.0000
      3 C3         -2.3561   -1.9005   -3.8938 C.ar      1 <0>         0.0000
      4 C4         -1.1368   -1.7407   -1.8142 C.ar      1 <0>         0.0000
      5 C5         -1.7830   -2.8854   -1.3475 C.ar      1 <0>         0.0000
      6 C6         -1.4234   -1.2482   -3.0874 C.ar      1 <0>         0.0000
      7 C7         -1.9197   -5.4155    2.2340 C.3       1 <0>         0.0000
      8 C8         -2.5213   -4.0185    2.3103 C.3       1 <0>         0.0000
      9 C9         -0.6334   -5.4298    1.4148 C.3       1 <0>         0.0000
     10 C10        -2.7552   -3.4382    0.9155 C.3       1 <0>         0.0000
     11 C11        -0.8413   -4.8547   -0.0009 C.3       1 <0>         0.0000
     12 C12        -1.4685   -3.4266    0.0523 C.3       1 <0>         0.0000
     13 C13        -0.1247   -6.1357   -2.7047 C.3       1 <0>         0.0000
     14 C14         1.4461   -4.3266   -2.8835 C.3       1 <0>         0.0000
     15 C15         0.1494    0.4853   -2.6670 C.3       1 <0>         0.0000
     16 C16         0.5005   -4.8898   -0.7478 C.3       1 <0>         0.0000
     17 N1          0.2654   -4.8240   -2.1482 N.3       1 <0>         0.0000
     18 O1         -0.5213   -2.5761    0.7190 O.3       1 <0>         0.0000
     19 O2         -0.7925   -0.1315   -3.5433 O.3       1 <0>         0.0000
     20 H1         -3.7281   -3.5533   -4.0550 H         1 <0>         0.0000
     21 H2         -3.2245   -4.4298   -1.7986 H         1 <0>         0.0000
     22 H3         -2.5838   -1.5219   -4.8864 H         1 <0>         0.0000
     23 H4         -0.4094   -1.2299   -1.1876 H         1 <0>         0.0000
     24 H5         -1.7163   -5.7846    3.2457 H         1 <0>         0.0000
     25 H6         -2.6462   -6.1038    1.7849 H         1 <0>         0.0000
     26 H7         -3.4733   -4.0594    2.8521 H         1 <0>         0.0000
     27 H8         -1.8613   -3.3598    2.8869 H         1 <0>         0.0000
     28 H9          0.1425   -4.8643    1.9458 H         1 <0>         0.0000
     29 H10        -0.2715   -6.4628    1.3427 H         1 <0>         0.0000
     30 H11        -3.5402   -4.0213    0.4150 H         1 <0>         0.0000
     31 H12        -3.1390   -2.4161    1.0301 H         1 <0>         0.0000
     32 H13        -1.5349   -5.5223   -0.5335 H         1 <0>         0.0000
     33 H14        -0.9983   -6.5239   -2.1746 H         1 <0>         0.0000
     34 H15         0.6965   -6.8500   -2.6001 H         1 <0>         0.0000
     35 H16        -0.3713   -6.0381   -3.7653 H         1 <0>         0.0000
     36 H17         1.7532   -3.3549   -2.4879 H         1 <0>         0.0000
     37 H18         1.2109   -4.2157   -3.9456 H         1 <0>         0.0000
     38 H19         2.2787   -5.0277   -2.7803 H         1 <0>         0.0000
     39 H20         0.5791    1.3645   -3.1533 H         1 <0>         0.0000
     40 H21         0.9385   -0.2286   -2.4178 H         1 <0>         0.0000
     41 H22        -0.3638    0.7920   -1.7525 H         1 <0>         0.0000
     42 H23         0.9994   -5.8158   -0.5054 H         1 <0>         0.0000
     43 H24         1.0890   -4.0402   -0.4375 H         1 <0>         0.0000
     44 H25        -0.9305   -1.6984    0.7798 H         1 <0>         0.0000
@<TRIPOS>BOND
     1    1    2 ar
     2    1    3 ar
     3    2    5 ar
     4    3    6 ar
     5    4    5 ar
     6    4    6 ar
     7    5   12 1
     8    6   19 1
     9    7    8 1
    10    7    9 1
    11    8   10 1
    12    9   11 1
    13   10   12 1
    14   11   12 1
    15   11   16 1
    16   12   18 1
    17   13   17 1
    18   14   17 1
    19   15   19 1
    20   16   17 1
    21    1   20 1
    22    2   21 1
    23    3   22 1
    24    4   23 1
    25    7   24 1
    26    7   25 1
    27    8   26 1
    28    8   27 1
    29    9   28 1
    30    9   29 1
    31   10   30 1
    32   10   31 1
    33   11   32 1
    34   13   33 1
    35   13   34 1
    36   13   35 1
    37   14   36 1
    38   14   37 1
    39   14   38 1
    40   15   39 1
    41   15   40 1
    42   15   41 1
    43   16   42 1
    44   16   43 1
    45   18   44 1
@<TRIPOS>MOLECULE
*****
   44    45     0     0     0
SMALL
NO_CHARGES

@<TRIPOS>ATOM
      1 C1         -1.9755   -4.8406   -3.8482 C.ar      1 <0>         0.0000
      2 C2         -2.3998   -4.4065   -2.5924 C.ar      1 <0>         0.0000
      3 C3         -0.6430   -5.2014   -4.0479 C.ar      1 <0>         0.0000
      4 C4         -0.1589   -4.6938   -1.7360 C.ar      1 <0>         0.0000
      5 C5         -1.4915   -4.3330   -1.5363 C.ar      1 <0>         0.0000
      6 C6          0.2653   -5.1280   -2.9919 C.ar      1 <0>         0.0000
      7 C7         -1.3962   -3.2528    2.7148 C.3       1 <0>         0.0000
      8 C8         -2.1130   -4.5337    2.3085 C.3       1 <0>         0.0000
      9 C9         -1.6396   -2.1300    1.7119 C.3       1 <0>         0.0000
     10 C10        -1.7177   -4.9667    0.8967 C.3       1 <0>         0.0000
     11 C11        -1.2436   -2.5373    0.2782 C.3       1 <0>         0.0000
     12 C12        -1.9579   -3.8552   -0.1560 C.3       1 <0>         0.0000
     13 C13         0.6241   -1.0678   -1.6756 C.3       1 <0>         0.0000
     14 C14        -1.3662   -0.7630   -2.9864 C.3       1 <0>         0.0000
     15 C15         2.4403   -5.3816   -2.0640 C.3       1 <0>         0.0000
     16 C16        -1.5361   -1.3612   -0.6657 C.3       1 <0>         0.0000
     17 N1         -0.7743   -1.5084   -1.8567 N.3       1 <0>         0.0000
     18 O1         -3.3690   -3.5842   -0.1682 O.3       1 <0>         0.0000
     19 O2          1.5655   -5.4807   -3.1867 O.3       1 <0>         0.0000
     20 H1         -2.6828   -4.8983   -4.6702 H         1 <0>         0.0000
     21 H2         -3.4398   -4.1271   -2.4464 H         1 <0>         0.0000
     22 H3         -0.3188   -5.5388   -5.0284 H         1 <0>         0.0000
     23 H4          0.5515   -4.6373   -0.9146 H         1 <0>         0.0000
     24 H5         -1.7368   -2.9396    3.7082 H         1 <0>         0.0000
     25 H6         -0.3190   -3.4445    2.7939 H         1 <0>         0.0000
     26 H7         -1.8649   -5.3322    3.0172 H         1 <0>         0.0000
     27 H8         -3.1980   -4.3883    2.3683 H         1 <0>         0.0000
     28 H9         -2.6954   -1.8339    1.7461 H         1 <0>         0.0000
     29 H10        -1.0595   -1.2506    2.0179 H         1 <0>         0.0000
     30 H11        -0.6597   -5.2624    0.8987 H         1 <0>         0.0000
     31 H12        -2.2997   -5.8606    0.6373 H         1 <0>         0.0000
     32 H13        -0.1568   -2.7082    0.2681 H         1 <0>         0.0000
     33 H14         1.0832   -1.6073   -0.8431 H         1 <0>         0.0000
     34 H15         0.6580    0.0039   -1.4619 H         1 <0>         0.0000
     35 H16         1.2023   -1.2627   -2.5828 H         1 <0>         0.0000
     36 H17        -2.4031   -1.0733   -3.1392 H         1 <0>         0.0000
     37 H18        -0.8024   -0.9558   -3.9032 H         1 <0>         0.0000
     38 H19        -1.3467    0.3109   -2.7823 H         1 <0>         0.0000
     39 H20         3.4463   -5.6925   -2.3564 H         1 <0>         0.0000
     40 H21         2.0711   -6.0182   -1.2560 H         1 <0>         0.0000
     41 H22         2.4665   -4.3435   -1.7243 H         1 <0>         0.0000
     42 H23        -1.2561   -0.4468   -0.1650 H         1 <0>         0.0000
     43 H24        -2.5884   -1.3653   -0.9042 H         1 <0>         0.0000
     44 H25        -3.8097   -4.4155   -0.4050 H         1 <0>         0.0000
@<TRIPOS>BOND
     1    1    2 ar
     2    1    3 ar
     3    2    5 ar
     4    3    6 ar
     5    4    5 ar
     6    4    6 ar
     7    5   12 1
     8    6   19 1
     9    7    8 1
    10    7    9 1
    11    8   10 1
    12    9   11 1
    13   10   12 1
    14   11   12 1
    15   11   16 1
    16   12   18 1
    17   13   17 1
    18   14   17 1
    19   15   19 1
    20   16   17 1
    21    1   20 1
    22    2   21 1
    23    3   22 1
    24    4   23 1
    25    7   24 1
    26    7   25 1
    27    8   26 1
    28    8   27 1
    29    9   28 1
    30    9   29 1
    31   10   30 1
    32   10   31 1
    33   11   32 1
    34   13   33 1
    35   13   34 1
    36   13   35 1
    37   14   36 1
    38   14   37 1
    39   14   38 1
    40   15   39 1
    41   15   40 1
    42   15   41 1
    43   16   42 1
    44   16   43 1
    45   18   44 1
@<TRIPOS>MOLECULE
*****
   44    45     0     0     0
SMALL
NO_CHARGES

@<TRIPOS>ATOM
      1 C1         -1.8698   -4.8031   -3.8153 C.ar      1 <0>         0.0000
      2 C2         -2.3013   -4.4106   -2.5483 C.ar      1 <0>         0.0000
      3 C3         -0.5292   -5.1254   -4.0267 C.ar      1 <0>         0.0000
      4 C4         -0.0517   -4.6627   -1.7040 C.ar      1 <0>         0.0000
      5 C5         -1.3923   -4.3404   -1.4927 C.ar      1 <0>         0.0000
      6 C6          0.3798   -5.0552   -2.9710 C.ar      1 <0>         0.0000
      7 C7         -1.3126   -3.3628    2.7835 C.3       1 <0>         0.0000
      8 C8         -1.9982   -4.6508    2.3473 C.3       1 <0>         0.0000
      9 C9         -1.5865   -2.2221    1.8090 C.3       1 <0>         0.0000
     10 C10        -1.5960   -5.0390    0.9245 C.3       1 <0>         0.0000
     11 C11        -1.1845   -2.5841    0.3649 C.3       1 <0>         0.0000
     12 C12        -1.8668   -3.9084   -0.1000 C.3       1 <0>         0.0000
     13 C13         0.6407   -1.0208   -1.5560 C.3       1 <0>         0.0000
     14 C14        -1.3601   -0.7338   -2.8548 C.3       1 <0>         0.0000
     15 C15         2.0605   -5.7643   -4.4969 C.3       1 <0>         0.0000
     16 C16        -1.5087   -1.3929   -0.5491 C.3       1 <0>         0.0000
     17 N1         -0.7467   -1.4917   -1.7450 N.3       1 <0>         0.0000
     18 O1         -3.2843   -3.6726   -0.1026 O.3       1 <0>         0.0000
     19 O2          1.6879   -5.3703   -3.1772 O.3       1 <0>         0.0000
     20 H1         -2.5776   -4.8582   -4.6370 H         1 <0>         0.0000
     21 H2         -3.3477   -4.1610   -2.3934 H         1 <0>         0.0000
     22 H3         -0.1993   -5.4303   -5.0159 H         1 <0>         0.0000
     23 H4          0.6593   -4.6086   -0.8829 H         1 <0>         0.0000
     24 H5         -1.6581   -3.0827    3.7850 H         1 <0>         0.0000
     25 H6         -0.2307   -3.5293    2.8556 H         1 <0>         0.0000
     26 H7         -1.7283   -5.4600    3.0357 H         1 <0>         0.0000
     27 H8         -3.0863   -4.5341    2.4129 H         1 <0>         0.0000
     28 H9         -2.6494   -1.9534    1.8527 H         1 <0>         0.0000
     29 H10        -1.0278   -1.3362    2.1354 H         1 <0>         0.0000
     30 H11        -0.5310   -5.3081    0.9169 H         1 <0>         0.0000
     31 H12        -2.1563   -5.9406    0.6444 H         1 <0>         0.0000
     32 H13        -0.0937   -2.7274    0.3484 H         1 <0>         0.0000
     33 H14         1.1153   -1.5689   -0.7380 H         1 <0>         0.0000
     34 H15         0.6485    0.0459   -1.3161 H         1 <0>         0.0000
     35 H16         1.2211   -1.1789   -2.4690 H         1 <0>         0.0000
     36 H17        -2.3894   -1.0662   -3.0130 H         1 <0>         0.0000
     37 H18        -0.7942   -0.8899   -3.7773 H         1 <0>         0.0000
     38 H19        -1.3669    0.3349   -2.6244 H         1 <0>         0.0000
     39 H20         3.1299   -5.9876   -4.5230 H         1 <0>         0.0000
     40 H21         1.8284   -4.9585   -5.1979 H         1 <0>         0.0000
     41 H22         1.4970   -6.6586   -4.7733 H         1 <0>         0.0000
     42 H23        -1.2503   -0.4843   -0.0267 H         1 <0>         0.0000
     43 H24        -2.5613   -1.4175   -0.7855 H         1 <0>         0.0000
     44 H25        -3.7047   -4.5086   -0.3589 H         1 <0>         0.0000
@<TRIPOS>BOND
     1    1    2 ar
     2    1    3 ar
     3    2    5 ar
     4    3    6 ar
     5    4    5 ar
     6    4    6 ar
     7    5   12 1
     8    6   19 1
     9    7    8 1
    10    7    9 1
    11    8   10 1
    12    9   11 1
    13   10   12 1
    14   11   12 1
    15   11   16 1
    16   12   18 1
    17   13   17 1
    18   14   17 1
    19   15   19 1
    20   16   17 1
    21    1   20 1
    22    2   21 1
    23    3   22 1
    24    4   23 1
    25    7   24 1
    26    7   25 1
    27    8   26 1
    28    8   27 1
    29    9   28 1
    30    9   29 1
    31   10   30 1
    32   10   31 1
    33   11   32 1
    34   13   33 1
    35   13   34 1
    36   13   35 1
    37   14   36 1
    38   14   37 1
    39   14   38 1
    40   15   39 1
    41   15   40 1
    42   15   41 1
    43   16   42 1
    44   16   43 1
    45   18   44 1
@<TRIPOS>MOLECULE
*****
   44    45     0     0     0
SMALL
NO_CHARGES

@<TRIPOS>ATOM
      1 C1         -3.9737   -4.2004    0.7311 C.ar      1 <0>         0.0000
      2 C2         -3.1867   -4.3119   -0.4152 C.ar      1 <0>         0.0000
      3 C3         -3.3716   -4.0061    1.9742 C.ar      1 <0>         0.0000
      4 C4         -1.1956   -4.0349    0.9249 C.ar      1 <0>         0.0000
      5 C5         -1.7977   -4.2292   -0.3183 C.ar      1 <0>         0.0000
      6 C6         -1.9825   -3.9234    2.0712 C.ar      1 <0>         0.0000
      7 C7         -0.6729   -4.7645   -4.5249 C.3       1 <0>         0.0000
      8 C8         -0.3777   -5.8936   -3.5465 C.3       1 <0>         0.0000
      9 C9         -0.4165   -3.3973   -3.8997 C.3       1 <0>         0.0000
     10 C10        -1.1722   -5.7274   -2.2512 C.3       1 <0>         0.0000
     11 C11        -1.2109   -3.1993   -2.5928 C.3       1 <0>         0.0000
     12 C12        -0.9327   -4.3522   -1.5784 C.3       1 <0>         0.0000
     13 C13        -0.5433    0.4643   -2.7159 C.3       1 <0>         0.0000
     14 C14        -2.6962   -0.5664   -2.9896 C.3       1 <0>         0.0000
     15 C15        -2.2593   -3.6271    4.4145 C.3       1 <0>         0.0000
     16 C16        -0.8825   -1.8111   -2.0232 C.3       1 <0>         0.0000
     17 N1         -1.2399   -0.8133   -2.9705 N.3       1 <0>         0.0000
     18 O1          0.4621   -4.2862   -1.2391 O.3       1 <0>         0.0000
     19 O2         -1.3951   -3.7333    3.2843 O.3       1 <0>         0.0000
     20 H1         -5.0551   -4.2643    0.6555 H         1 <0>         0.0000
     21 H2         -3.6648   -4.4635   -1.3794 H         1 <0>         0.0000
     22 H3         -3.9901   -3.9201    2.8633 H         1 <0>         0.0000
     23 H4         -0.1128   -3.9704    1.0035 H         1 <0>         0.0000
     24 H5         -0.0528   -4.8820   -5.4208 H         1 <0>         0.0000
     25 H6         -1.7183   -4.8262   -4.8517 H         1 <0>         0.0000
     26 H7         -0.6320   -6.8543   -4.0091 H         1 <0>         0.0000
     27 H8          0.6963   -5.9261   -3.3284 H         1 <0>         0.0000
     28 H9          0.6582   -3.2777   -3.7143 H         1 <0>         0.0000
     29 H10        -0.6963   -2.6202   -4.6216 H         1 <0>         0.0000
     30 H11        -2.2406   -5.8595   -2.4701 H         1 <0>         0.0000
     31 H12        -0.8832   -6.5352   -1.5663 H         1 <0>         0.0000
     32 H13        -2.2810   -3.2082   -2.8484 H         1 <0>         0.0000
     33 H14         0.5380    0.3055   -2.6973 H         1 <0>         0.0000
     34 H15        -0.8546    0.8793   -1.7534 H         1 <0>         0.0000
     35 H16        -0.7795    1.1868   -3.5018 H         1 <0>         0.0000
     36 H17        -3.2331   -1.5000   -3.1769 H         1 <0>         0.0000
     37 H18        -2.9480    0.1485   -3.7777 H         1 <0>         0.0000
     38 H19        -3.0232   -0.1589   -2.0292 H         1 <0>         0.0000
     39 H20        -1.6625   -3.4775    5.3176 H         1 <0>         0.0000
     40 H21        -2.8552   -4.5387    4.5056 H         1 <0>         0.0000
     41 H22        -2.9245   -2.7717    4.2743 H         1 <0>         0.0000
     42 H23         0.1785   -1.7662   -1.8298 H         1 <0>         0.0000
     43 H24        -1.4479   -1.6696   -1.1151 H         1 <0>         0.0000
     44 H25         0.6366   -5.0255   -0.6356 H         1 <0>         0.0000
@<TRIPOS>BOND
     1    1    2 ar
     2    1    3 ar
     3    2    5 ar
     4    3    6 ar
     5    4    5 ar
     6    4    6 ar
     7    5   12 1
     8    6   19 1
     9    7    8 1
    10    7    9 1
    11    8   10 1
    12    9   11 1
    13   10   12 1
    14   11   12 1
    15   11   16 1
    16   12   18 1
    17   13   17 1
    18   14   17 1
    19   15   19 1
    20   16   17 1
    21    1   20 1
    22    2   21 1
    23    3   22 1
    24    4   23 1
    25    7   24 1
    26    7   25 1
    27    8   26 1
    28    8   27 1
    29    9   28 1
    30    9   29 1
    31   10   30 1
    32   10   31 1
    33   11   32 1
    34   13   33 1
    35   13   34 1
    36   13   35 1
    37   14   36 1
    38   14   37 1
    39   14   38 1
    40   15   39 1
    41   15   40 1
    42   15   41 1
    43   16   42 1
    44   16   43 1
    45   18   44 1
@<TRIPOS>MOLECULE
*****
   44    45     0     0     0
SMALL
NO_CHARGES

@<TRIPOS>ATOM
      1 C1         -4.0546   -4.1884    0.7092 C.ar      1 <0>         0.0000
      2 C2         -3.2404   -4.3041   -0.4174 C.ar      1 <0>         0.0000
      3 C3         -3.4820   -3.9988    1.9670 C.ar      1 <0>         0.0000
      4 C4         -1.2811   -4.0408    0.9715 C.ar      1 <0>         0.0000
      5 C5         -1.8537   -4.2304   -0.2863 C.ar      1 <0>         0.0000
      6 C6         -2.0953   -3.9250    2.0981 C.ar      1 <0>         0.0000
      7 C7         -0.6292   -4.7701   -4.4644 C.3       1 <0>         0.0000
      8 C8         -0.3653   -5.9018   -3.4800 C.3       1 <0>         0.0000
      9 C9         -0.3796   -3.4050   -3.8320 C.3       1 <0>         0.0000
     10 C10        -1.1904   -5.7313   -2.2045 C.3       1 <0>         0.0000
     11 C11        -1.2046   -3.2028   -2.5449 C.3       1 <0>         0.0000
     12 C12        -0.9588   -4.3581   -1.5249 C.3       1 <0>         0.0000
     13 C13        -0.5108    0.4566   -2.6485 C.3       1 <0>         0.0000
     14 C14        -2.6628   -0.5602   -2.9760 C.3       1 <0>         0.0000
     15 C15        -0.1128   -3.6734    3.3874 C.3       1 <0>         0.0000
     16 C16        -0.8814   -1.8171   -1.9663 C.3       1 <0>         0.0000
     17 N1         -1.2090   -0.8164   -2.9212 N.3       1 <0>         0.0000
     18 O1          0.4276   -4.3013   -1.1514 O.3       1 <0>         0.0000
     19 O2         -1.5367   -3.7394    3.3255 O.3       1 <0>         0.0000
     20 H1         -5.1342   -4.2453    0.6070 H         1 <0>         0.0000
     21 H2         -3.6955   -4.4521   -1.3932 H         1 <0>         0.0000
     22 H3         -4.1216   -3.9094    2.8406 H         1 <0>         0.0000
     23 H4         -0.2002   -3.9832    1.0767 H         1 <0>         0.0000
     24 H5          0.0120   -4.8910   -5.3449 H         1 <0>         0.0000
     25 H6         -1.6666   -4.8249   -4.8169 H         1 <0>         0.0000
     26 H7         -0.6144   -6.8605   -3.9495 H         1 <0>         0.0000
     27 H8          0.7027   -5.9413   -3.2356 H         1 <0>         0.0000
     28 H9          0.6910   -3.2924   -3.6201 H         1 <0>         0.0000
     29 H10        -0.6366   -2.6257   -4.5599 H         1 <0>         0.0000
     30 H11        -2.2539   -5.8564   -2.4497 H         1 <0>         0.0000
     31 H12        -0.9235   -6.5414   -1.5133 H         1 <0>         0.0000
     32 H13        -2.2681   -3.2046   -2.8267 H         1 <0>         0.0000
     33 H14         0.5687    0.2908   -2.6035 H         1 <0>         0.0000
     34 H15        -0.8430    0.8729   -1.6936 H         1 <0>         0.0000
     35 H16        -0.7229    1.1810   -3.4394 H         1 <0>         0.0000
     36 H17        -3.2009   -1.4902   -3.1771 H         1 <0>         0.0000
     37 H18        -2.8906    0.1568   -3.7694 H         1 <0>         0.0000
     38 H19        -3.0107   -0.1512   -2.0236 H         1 <0>         0.0000
     39 H20         0.2010   -3.5231    4.4233 H         1 <0>         0.0000
     40 H21         0.2420   -2.8483    2.7647 H         1 <0>         0.0000
     41 H22         0.3031   -4.6128    3.0157 H         1 <0>         0.0000
     42 H23         0.1748   -1.7791   -1.7467 H         1 <0>         0.0000
     43 H24        -1.4680   -1.6726   -1.0722 H         1 <0>         0.0000
     44 H25         0.5826   -5.0421   -0.5443 H         1 <0>         0.0000
@<TRIPOS>BOND
     1    1    2 ar
     2    1    3 ar
     3    2    5 ar
     4    3    6 ar
     5    4    5 ar
     6    4    6 ar
     7    5   12 1
     8    6   19 1
     9    7    8 1
    10    7    9 1
    11    8   10 1
    12    9   11 1
    13   10   12 1
    14   11   12 1
    15   11   16 1
    16   12   18 1
    17   13   17 1
    18   14   17 1
    19   15   19 1
    20   16   17 1
    21    1   20 1
    22    2   21 1
    23    3   22 1
    24    4   23 1
    25    7   24 1
    26    7   25 1
    27    8   26 1
    28    8   27 1
    29    9   28 1
    30    9   29 1
    31   10   30 1
    32   10   31 1
    33   11   32 1
    34   13   33 1
    35   13   34 1
    36   13   35 1
    37   14   36 1
    38   14   37 1
    39   14   38 1
    40   15   39 1
    41   15   40 1
    42   15   41 1
    43   16   42 1
    44   16   43 1
    45   18   44 1
@<TRIPOS>MOLECULE
*****
   44    45     0     0     0
SMALL
NO_CHARGES

@<TRIPOS>ATOM
      1 C1         -3.7993   -4.8752    1.1413 C.ar      1 <0>         0.0000
      2 C2         -3.1324   -4.8529   -0.0836 C.ar      1 <0>         0.0000
      3 C3         -3.2109   -4.2972    2.2663 C.ar      1 <0>         0.0000
      4 C4         -1.2888   -3.6750    0.9414 C.ar      1 <0>         0.0000
      5 C5         -1.8772   -4.2529   -0.1836 C.ar      1 <0>         0.0000
      6 C6         -1.9557   -3.6972    2.1664 C.ar      1 <0>         0.0000
      7 C7         -1.1891   -4.2032   -4.5162 C.3       1 <0>         0.0000
      8 C8         -0.8804   -5.4815   -3.7480 C.3       1 <0>         0.0000
      9 C9         -0.7840   -2.9619   -3.7282 C.3       1 <0>         0.0000
     10 C10        -1.5374   -5.4718   -2.3678 C.3       1 <0>         0.0000
     11 C11        -1.4377   -2.9227   -2.3319 C.3       1 <0>         0.0000
     12 C12        -1.1441   -4.2290   -1.5301 C.3       1 <0>         0.0000
     13 C13        -0.0431    0.5199   -2.0371 C.3       1 <0>         0.0000
     14 C14        -2.2535   -0.0234   -2.8058 C.3       1 <0>         0.0000
     15 C15        -0.0973   -2.5366    3.0911 C.3       1 <0>         0.0000
     16 C16        -0.9648   -1.6559   -1.6031 C.3       1 <0>         0.0000
     17 N1         -0.9119   -0.5723   -2.5214 N.3       1 <0>         0.0000
     18 O1          0.2776   -4.2886   -1.3295 O.3       1 <0>         0.0000
     19 O2         -1.3819   -3.1328    3.2641 O.3       1 <0>         0.0000
     20 H1         -4.7767   -5.3419    1.2189 H         1 <0>         0.0000
     21 H2         -3.5986   -5.3061   -0.9545 H         1 <0>         0.0000
     22 H3         -3.7354   -4.3179    3.2175 H         1 <0>         0.0000
     23 H4         -0.3101   -3.2067    0.8666 H         1 <0>         0.0000
     24 H5         -0.6648   -4.2161   -5.4784 H         1 <0>         0.0000
     25 H6         -2.2622   -4.1596   -4.7397 H         1 <0>         0.0000
     26 H7         -1.2410   -6.3462   -4.3170 H         1 <0>         0.0000
     27 H8          0.2046   -5.6031   -3.6482 H         1 <0>         0.0000
     28 H9          0.3089   -2.9285   -3.6384 H         1 <0>         0.0000
     29 H10        -1.0772   -2.0708   -4.2968 H         1 <0>         0.0000
     30 H11        -2.6280   -5.5128   -2.4929 H         1 <0>         0.0000
     31 H12        -1.2406   -6.3881   -1.8410 H         1 <0>         0.0000
     32 H13        -2.5251   -2.8364   -2.4751 H         1 <0>         0.0000
     33 H14         0.9571    0.1362   -1.8198 H         1 <0>         0.0000
     34 H15        -0.4582    0.9568   -1.1247 H         1 <0>         0.0000
     35 H16         0.0376    1.3033   -2.7954 H         1 <0>         0.0000
     36 H17        -2.9149   -0.8156   -3.1664 H         1 <0>         0.0000
     37 H18        -2.1889    0.7560   -3.5699 H         1 <0>         0.0000
     38 H19        -2.6848    0.4095   -1.8992 H         1 <0>         0.0000
     39 H20         0.2452   -2.1243    4.0434 H         1 <0>         0.0000
     40 H21        -0.1602   -1.7447    2.3406 H         1 <0>         0.0000
     41 H22         0.6067   -3.3009    2.7533 H         1 <0>         0.0000
     42 H23         0.0203   -1.8426   -1.2030 H         1 <0>         0.0000
     43 H24        -1.6664   -1.4307   -0.8148 H         1 <0>         0.0000
     44 H25         0.4576   -5.1190   -0.8611 H         1 <0>         0.0000
@<TRIPOS>BOND
     1    1    2 ar
     2    1    3 ar
     3    2    5 ar
     4    3    6 ar
     5    4    5 ar
     6    4    6 ar
     7    5   12 1
     8    6   19 1
     9    7    8 1
    10    7    9 1
    11    8   10 1
    12    9   11 1
    13   10   12 1
    14   11   12 1
    15   11   16 1
    16   12   18 1
    17   13   17 1
    18   14   17 1
    19   15   19 1
    20   16   17 1
    21    1   20 1
    22    2   21 1
    23    3   22 1
    24    4   23 1
    25    7   24 1
    26    7   25 1
    27    8   26 1
    28    8   27 1
    29    9   28 1
    30    9   29 1
    31   10   30 1
    32   10   31 1
    33   11   32 1
    34   13   33 1
    35   13   34 1
    36   13   35 1
    37   14   36 1
    38   14   37 1
    39   14   38 1
    40   15   39 1
    41   15   40 1
    42   15   41 1
    43   16   42 1
    44   16   43 1
    45   18   44 1
@<TRIPOS>MOLECULE
*****
   44    45     0     0     0
SMALL
NO_CHARGES

@<TRIPOS>ATOM
      1 C1         -1.1209   -3.8041    2.3246 C.ar      1 <0>         0.0000
      2 C2         -0.5896   -3.9575    1.0441 C.ar      1 <0>         0.0000
      3 C3         -2.5008   -3.8653    2.5191 C.ar      1 <0>         0.0000
      4 C4         -2.8180   -4.2333    0.1525 C.ar      1 <0>         0.0000
      5 C5         -1.4381   -4.1721   -0.0419 C.ar      1 <0>         0.0000
      6 C6         -3.3494   -4.0799    1.4331 C.ar      1 <0>         0.0000
      7 C7         -1.2137   -4.8283   -4.3740 C.3       1 <0>         0.0000
      8 C8         -0.7355   -5.9381   -3.4472 C.3       1 <0>         0.0000
      9 C9         -0.8180   -3.4508   -3.8526 C.3       1 <0>         0.0000
     10 C10        -1.2431   -5.7271   -2.0208 C.3       1 <0>         0.0000
     11 C11        -1.3227   -3.2078   -2.4157 C.3       1 <0>         0.0000
     12 C12        -0.8539   -4.3403   -1.4496 C.3       1 <0>         0.0000
     13 C13        -0.6531    0.4400   -2.7737 C.3       1 <0>         0.0000
     14 C14        -2.8277   -0.5607   -2.5690 C.3       1 <0>         0.0000
     15 C15        -5.5050   -4.3622    0.4691 C.3       1 <0>         0.0000
     16 C16        -0.8677   -1.8119   -1.9643 C.3       1 <0>         0.0000
     17 N1         -1.4018   -0.8315   -2.8441 N.3       1 <0>         0.0000
     18 O1          0.5816   -4.2895   -1.4075 O.3       1 <0>         0.0000
     19 O2         -4.6959   -4.1403    1.6230 O.3       1 <0>         0.0000
     20 H1         -0.4602   -3.6375    3.1702 H         1 <0>         0.0000
     21 H2          0.4868   -3.9079    0.9023 H         1 <0>         0.0000
     22 H3         -2.9084   -3.7450    3.5190 H         1 <0>         0.0000
     23 H4         -3.4821   -4.4003   -0.6924 H         1 <0>         0.0000
     24 H5         -0.7937   -4.9779   -5.3750 H         1 <0>         0.0000
     25 H6         -2.3047   -4.8803   -4.4762 H         1 <0>         0.0000
     26 H7         -1.0910   -6.9053   -3.8210 H         1 <0>         0.0000
     27 H8          0.3599   -5.9833   -3.4547 H         1 <0>         0.0000
     28 H9          0.2731   -3.3448   -3.8964 H         1 <0>         0.0000
     29 H10        -1.2322   -2.6869   -4.5221 H         1 <0>         0.0000
     30 H11        -2.3350   -5.8466   -2.0108 H         1 <0>         0.0000
     31 H12        -0.8279   -6.5228   -1.3886 H         1 <0>         0.0000
     32 H13        -2.4225   -3.2049   -2.4446 H         1 <0>         0.0000
     33 H14         0.4068    0.2636   -2.9744 H         1 <0>         0.0000
     34 H15        -0.7539    0.8834   -1.7793 H         1 <0>         0.0000
     35 H16        -1.0384    1.1470   -3.5133 H         1 <0>         0.0000
     36 H17        -3.4024   -1.4894   -2.6159 H         1 <0>         0.0000
     37 H18        -3.2289    0.1390   -3.3073 H         1 <0>         0.0000
     38 H19        -2.9444   -0.1246   -1.5732 H         1 <0>         0.0000
     39 H20        -6.5577   -4.3885    0.7609 H         1 <0>         0.0000
     40 H21        -5.2219   -5.3084    0.0010 H         1 <0>         0.0000
     41 H22        -5.3458   -3.5457   -0.2391 H         1 <0>         0.0000
     42 H23         0.2108   -1.7801   -1.9953 H         1 <0>         0.0000
     43 H24        -1.2314   -1.6389   -0.9632 H         1 <0>         0.0000
     44 H25         0.8687   -5.0168   -0.8331 H         1 <0>         0.0000
@<TRIPOS>BOND
     1    1    2 ar
     2    1    3 ar
     3    2    5 ar
     4    3    6 ar
     5    4    5 ar
     6    4    6 ar
     7    5   12 1
     8    6   19 1
     9    7    8 1
    10    7    9 1
    11    8   10 1
    12    9   11 1
    13   10   12 1
    14   11   12 1
    15   11   16 1
    16   12   18 1
    17   13   17 1
    18   14   17 1
    19   15   19 1
    20   16   17 1
    21    1   20 1
    22    2   21 1
    23    3   22 1
    24    4   23 1
    25    7   24 1
    26    7   25 1
    27    8   26 1
    28    8   27 1
    29    9   28 1
    30    9   29 1
    31   10   30 1
    32   10   31 1
    33   11   32 1
    34   13   33 1
    35   13   34 1
    36   13   35 1
    37   14   36 1
    38   14   37 1
    39   14   38 1
    40   15   39 1
    41   15   40 1
    42   15   41 1
    43   16   42 1
    44   16   43 1
    45   18   44 1
@<TRIPOS>MOLECULE
*****
   44    45     0     0     0
SMALL
NO_CHARGES

@<TRIPOS>ATOM
      1 C1         -1.1588   -3.8381    2.2341 C.ar      1 <0>         0.0000
      2 C2         -0.6051   -3.9925    0.9632 C.ar      1 <0>         0.0000
      3 C3         -2.5423   -3.8927    2.4034 C.ar      1 <0>         0.0000
      4 C4         -2.8183   -4.2558    0.0309 C.ar      1 <0>         0.0000
      5 C5         -1.4348   -4.2013   -0.1384 C.ar      1 <0>         0.0000
      6 C6         -3.3720   -4.1015    1.3018 C.ar      1 <0>         0.0000
      7 C7         -1.1350   -4.8525   -4.4666 C.3       1 <0>         0.0000
      8 C8         -0.6792   -5.9661   -3.5330 C.3       1 <0>         0.0000
      9 C9         -0.7420   -3.4778   -3.9361 C.3       1 <0>         0.0000
     10 C10        -1.2116   -5.7545   -2.1157 C.3       1 <0>         0.0000
     11 C11        -1.2714   -3.2343   -2.5083 C.3       1 <0>         0.0000
     12 C12        -0.8259   -4.3704   -1.5355 C.3       1 <0>         0.0000
     13 C13        -0.5773    0.4107   -2.8486 C.3       1 <0>         0.0000
     14 C14        -2.7602   -0.5795   -2.6849 C.3       1 <0>         0.0000
     15 C15        -5.2207   -3.9905    2.7937 C.3       1 <0>         0.0000
     16 C16        -0.8178   -1.8413   -2.0466 C.3       1 <0>         0.0000
     17 N1         -1.3309   -0.8570   -2.9345 N.3       1 <0>         0.0000
     18 O1          0.6087   -4.3269   -1.4673 O.3       1 <0>         0.0000
     19 O2         -4.7221   -4.1554    1.4672 O.3       1 <0>         0.0000
     20 H1         -0.5127   -3.6760    3.0917 H         1 <0>         0.0000
     21 H2          0.4740   -3.9480    0.8411 H         1 <0>         0.0000
     22 H3         -2.9674   -3.7717    3.3959 H         1 <0>         0.0000
     23 H4         -3.4677   -4.4182   -0.8262 H         1 <0>         0.0000
     24 H5         -0.6976   -5.0029   -5.4601 H         1 <0>         0.0000
     25 H6         -2.2242   -4.8990   -4.5887 H         1 <0>         0.0000
     26 H7         -1.0327   -6.9309   -3.9146 H         1 <0>         0.0000
     27 H8          0.4159   -6.0168   -3.5207 H         1 <0>         0.0000
     28 H9          0.3503   -3.3772   -3.9599 H         1 <0>         0.0000
     29 H10        -1.1401   -2.7109   -4.6119 H         1 <0>         0.0000
     30 H11        -2.3041   -5.8685   -2.1256 H         1 <0>         0.0000
     31 H12        -0.8119   -6.5531   -1.4772 H         1 <0>         0.0000
     32 H13        -2.3705   -3.2258   -2.5571 H         1 <0>         0.0000
     33 H14         0.4852    0.2291   -3.0303 H         1 <0>         0.0000
     34 H15        -0.6939    0.8531   -1.8556 H         1 <0>         0.0000
     35 H16        -0.9455    1.1206   -3.5941 H         1 <0>         0.0000
     36 H17        -3.3385   -1.5052   -2.7436 H         1 <0>         0.0000
     37 H18        -3.1444    0.1233   -3.4293 H         1 <0>         0.0000
     38 H19        -2.8927   -0.1441   -1.6908 H         1 <0>         0.0000
     39 H20        -6.3115   -4.0549    2.7844 H         1 <0>         0.0000
     40 H21        -4.9057   -3.0195    3.1843 H         1 <0>         0.0000
     41 H22        -4.8165   -4.7841    3.4266 H         1 <0>         0.0000
     42 H23         0.2613   -1.8149   -2.0580 H         1 <0>         0.0000
     43 H24        -1.1987   -1.6678   -1.0520 H         1 <0>         0.0000
     44 H25         0.8818   -5.0564   -0.8888 H         1 <0>         0.0000
@<TRIPOS>BOND
     1    1    2 ar
     2    1    3 ar
     3    2    5 ar
     4    3    6 ar
     5    4    5 ar
     6    4    6 ar
     7    5   12 1
     8    6   19 1
     9    7    8 1
    10    7    9 1
    11    8   10 1
    12    9   11 1
    13   10   12 1
    14   11   12 1
    15   11   16 1
    16   12   18 1
    17   13   17 1
    18   14   17 1
    19   15   19 1
    20   16   17 1
    21    1   20 1
    22    2   21 1
    23    3   22 1
    24    4   23 1
    25    7   24 1
    26    7   25 1
    27    8   26 1
    28    8   27 1
    29    9   28 1
    30    9   29 1
    31   10   30 1
    32   10   31 1
    33   11   32 1
    34   13   33 1
    35   13   34 1
    36   13   35 1
    37   14   36 1
    38   14   37 1
    39   14   38 1
    40   15   39 1
    41   15   40 1
    42   15   41 1
    43   16   42 1
    44   16   43 1
    45   18   44 1
@<TRIPOS>MOLECULE
*****
   44    45     0     0     0
SMALL
NO_CHARGES

@<TRIPOS>ATOM
      1 C1         -1.1327   -3.1510    2.3819 C.ar      1 <0>         0.0000
      2 C2         -0.6927   -3.2905    1.0657 C.ar      1 <0>         0.0000
      3 C3         -2.3286   -3.7457    2.7843 C.ar      1 <0>         0.0000
      4 C4         -2.6446   -4.6190    0.5539 C.ar      1 <0>         0.0000
      5 C5         -1.4487   -4.0244    0.1517 C.ar      1 <0>         0.0000
      6 C6         -3.0846   -4.4796    1.8702 C.ar      1 <0>         0.0000
      7 C7         -1.5355   -4.5620   -4.2016 C.3       1 <0>         0.0000
      8 C8         -1.0509   -5.7191   -3.3381 C.3       1 <0>         0.0000
      9 C9         -1.0429   -3.2198   -3.6711 C.3       1 <0>         0.0000
     10 C10        -1.4549   -5.5276   -1.8762 C.3       1 <0>         0.0000
     11 C11        -1.4417   -2.9968   -2.1982 C.3       1 <0>         0.0000
     12 C12        -0.9651   -4.1771   -1.2954 C.3       1 <0>         0.0000
     13 C13        -0.1412    0.4696   -2.6185 C.3       1 <0>         0.0000
     14 C14        -2.4315   -0.1996   -2.8997 C.3       1 <0>         0.0000
     15 C15        -4.9742   -5.7963    1.2775 C.3       1 <0>         0.0000
     16 C16        -0.8937   -1.6366   -1.7409 C.3       1 <0>         0.0000
     17 N1         -1.0419   -0.6887   -2.7898 N.3       1 <0>         0.0000
     18 O1          0.4709   -4.1923   -1.3466 O.3       1 <0>         0.0000
     19 O2         -4.2514   -5.0604    2.2630 O.3       1 <0>         0.0000
     20 H1         -0.5438   -2.5800    3.0936 H         1 <0>         0.0000
     21 H2          0.2402   -2.8232    0.7614 H         1 <0>         0.0000
     22 H3         -2.6659   -3.6334    3.8109 H         1 <0>         0.0000
     23 H4         -3.2363   -5.1916   -0.1566 H         1 <0>         0.0000
     24 H5         -1.1885   -4.7008   -5.2317 H         1 <0>         0.0000
     25 H6         -2.6321   -4.5619   -4.2330 H         1 <0>         0.0000
     26 H7         -1.4747   -6.6579   -3.7131 H         1 <0>         0.0000
     27 H8          0.0384   -5.8134   -3.4189 H         1 <0>         0.0000
     28 H9          0.0469   -3.1617   -3.7839 H         1 <0>         0.0000
     29 H10        -1.4631   -2.4185   -4.2914 H         1 <0>         0.0000
     30 H11        -2.5483   -5.5980   -1.7974 H         1 <0>         0.0000
     31 H12        -1.0375   -6.3595   -1.2940 H         1 <0>         0.0000
     32 H13        -2.5398   -2.9434   -2.1545 H         1 <0>         0.0000
     33 H14         0.8947    0.1308   -2.5348 H         1 <0>         0.0000
     34 H15        -0.4048    1.0227   -1.7129 H         1 <0>         0.0000
     35 H16        -0.2232    1.1423   -3.4764 H         1 <0>         0.0000
     36 H17        -3.1171   -1.0413   -3.0273 H         1 <0>         0.0000
     37 H18        -2.5302    0.4683   -3.7597 H         1 <0>         0.0000
     38 H19        -2.7118    0.3487   -1.9962 H         1 <0>         0.0000
     39 H20        -5.8840   -6.2067    1.7226 H         1 <0>         0.0000
     40 H21        -4.3475   -6.6047    0.8927 H         1 <0>         0.0000
     41 H22        -5.2429   -5.1249    0.4585 H         1 <0>         0.0000
     42 H23         0.1524   -1.7552   -1.5025 H         1 <0>         0.0000
     43 H24        -1.4534   -1.3134   -0.8768 H         1 <0>         0.0000
     44 H25         0.7601   -4.9484   -0.8118 H         1 <0>         0.0000
@<TRIPOS>BOND
     1    1    2 ar
     2    1    3 ar
     3    2    5 ar
     4    3    6 ar
     5    4    5 ar
     6    4    6 ar
     7    5   12 1
     8    6   19 1
     9    7    8 1
    10    7    9 1
    11    8   10 1
    12    9   11 1
    13   10   12 1
    14   11   12 1
    15   11   16 1
    16   12   18 1
    17   13   17 1
    18   14   17 1
    19   15   19 1
    20   16   17 1
    21    1   20 1
    22    2   21 1
    23    3   22 1
    24    4   23 1
    25    7   24 1
    26    7   25 1
    27    8   26 1
    28    8   27 1
    29    9   28 1
    30    9   29 1
    31   10   30 1
    32   10   31 1
    33   11   32 1
    34   13   33 1
    35   13   34 1
    36   13   35 1
    37   14   36 1
    38   14   37 1
    39   14   38 1
    40   15   39 1
    41   15   40 1
    42   15   41 1
    43   16   42 1
    44   16   43 1
    45   18   44 1
@<TRIPOS>MOLECULE
*****
   44    45     0     0     0
SMALL
NO_CHARGES

@<TRIPOS>ATOM
      1 C1         -1.0632   -3.0962    2.3715 C.ar      1 <0>         0.0000
      2 C2         -0.6468   -3.2523    1.0495 C.ar      1 <0>         0.0000
      3 C3         -2.2578   -3.6754    2.7995 C.ar      1 <0>         0.0000
      4 C4         -2.6198   -4.5666    0.5833 C.ar      1 <0>         0.0000
      5 C5         -1.4251   -3.9875    0.1554 C.ar      1 <0>         0.0000
      6 C6         -3.0361   -4.4105    1.9054 C.ar      1 <0>         0.0000
      7 C7         -1.5906   -4.5652   -4.1905 C.3       1 <0>         0.0000
      8 C8         -1.1025   -5.7188   -3.3242 C.3       1 <0>         0.0000
      9 C9         -1.0762   -3.2229   -3.6813 C.3       1 <0>         0.0000
     10 C10        -1.4799   -5.5096   -1.8576 C.3       1 <0>         0.0000
     11 C11        -1.4480   -2.9821   -2.2041 C.3       1 <0>         0.0000
     12 C12        -0.9675   -4.1585   -1.2981 C.3       1 <0>         0.0000
     13 C13        -0.1218    0.4673   -2.6794 C.3       1 <0>         0.0000
     14 C14        -2.4228   -0.1822   -2.9156 C.3       1 <0>         0.0000
     15 C15        -4.5668   -4.7776    3.6881 C.3       1 <0>         0.0000
     16 C16        -0.8794   -1.6231   -1.7691 C.3       1 <0>         0.0000
     17 N1         -1.0363   -0.6838   -2.8244 N.3       1 <0>         0.0000
     18 O1          0.4672   -4.1881   -1.3733 O.3       1 <0>         0.0000
     19 O2         -4.2015   -4.9762    2.3233 O.3       1 <0>         0.0000
     20 H1         -0.4570   -2.5242    3.0677 H         1 <0>         0.0000
     21 H2          0.2852   -2.7970    0.7251 H         1 <0>         0.0000
     22 H3         -2.5766   -3.5501    3.8305 H         1 <0>         0.0000
     23 H4         -3.2287   -5.1401   -0.1116 H         1 <0>         0.0000
     24 H5         -1.2623   -4.7171   -5.2249 H         1 <0>         0.0000
     25 H6         -2.6874   -4.5548   -4.2035 H         1 <0>         0.0000
     26 H7         -1.5416   -6.6569   -3.6830 H         1 <0>         0.0000
     27 H8         -0.0157   -5.8244   -3.4224 H         1 <0>         0.0000
     28 H9          0.0120   -3.1765   -3.8128 H         1 <0>         0.0000
     29 H10        -1.4993   -2.4235   -4.3021 H         1 <0>         0.0000
     30 H11        -2.5725   -5.5686   -1.7598 H         1 <0>         0.0000
     31 H12        -1.0607   -6.3399   -1.2746 H         1 <0>         0.0000
     32 H13        -2.5446   -2.9177   -2.1424 H         1 <0>         0.0000
     33 H14         0.9121    0.1193   -2.6098 H         1 <0>         0.0000
     34 H15        -0.3647    1.0315   -1.7748 H         1 <0>         0.0000
     35 H16        -0.2119    1.1327   -3.5422 H         1 <0>         0.0000
     36 H17        -3.1185   -1.0184   -3.0237 H         1 <0>         0.0000
     37 H18        -2.5296    0.4784   -3.7803 H         1 <0>         0.0000
     38 H19        -2.6825    0.3773   -2.0129 H         1 <0>         0.0000
     39 H20        -5.5158   -5.2807    3.8890 H         1 <0>         0.0000
     40 H21        -4.6597   -3.7074    3.8893 H         1 <0>         0.0000
     41 H22        -3.7898   -5.2007    4.3292 H         1 <0>         0.0000
     42 H23         0.1694   -1.7496   -1.5472 H         1 <0>         0.0000
     43 H24        -1.4213   -1.2864   -0.8989 H         1 <0>         0.0000
     44 H25         0.7582   -4.9419   -0.8362 H         1 <0>         0.0000
@<TRIPOS>BOND
     1    1    2 ar
     2    1    3 ar
     3    2    5 ar
     4    3    6 ar
     5    4    5 ar
     6    4    6 ar
     7    5   12 1
     8    6   19 1
     9    7    8 1
    10    7    9 1
    11    8   10 1
    12    9   11 1
    13   10   12 1
    14   11   12 1
    15   11   16 1
    16   12   18 1
    17   13   17 1
    18   14   17 1
    19   15   19 1
    20   16   17 1
    21    1   20 1
    22    2   21 1
    23    3   22 1
    24    4   23 1
    25    7   24 1
    26    7   25 1
    27    8   26 1
    28    8   27 1
    29    9   28 1
    30    9   29 1
    31   10   30 1
    32   10   31 1
    33   11   32 1
    34   13   33 1
    35   13   34 1
    36   13   35 1
    37   14   36 1
    38   14   37 1
    39   14   38 1
    40   15   39 1
    41   15   40 1
    42   15   41 1
    43   16   42 1
    44   16   43 1
    45   18   44 1
@<TRIPOS>MOLECULE
*****
   44    45     0     0     0
SMALL
NO_CHARGES

@<TRIPOS>ATOM
      1 C1         -0.6372   -1.2450   -4.3115 C.ar      1 <0>         0.0000
      2 C2         -1.0781   -2.3836   -3.6371 C.ar      1 <0>         0.0000
      3 C3         -0.6950    0.0013   -3.6877 C.ar      1 <0>         0.0000
      4 C4         -1.6349   -1.0296   -1.7151 C.ar      1 <0>         0.0000
      5 C5         -1.5770   -2.2759   -2.3389 C.ar      1 <0>         0.0000
      6 C6         -1.1939    0.1090   -2.3896 C.ar      1 <0>         0.0000
      7 C7          0.1500   -5.5234   -1.1303 C.3       1 <0>         0.0000
      8 C8         -0.5313   -5.4198   -2.4883 C.3       1 <0>         0.0000
      9 C9          0.0797   -4.2068   -0.3641 C.3       1 <0>         0.0000
     10 C10        -1.9529   -4.8628   -2.3865 C.3       1 <0>         0.0000
     11 C11        -1.3617   -3.6906   -0.2023 C.3       1 <0>         0.0000
     12 C12        -2.0633   -3.5305   -1.5961 C.3       1 <0>         0.0000
     13 C13        -1.8962   -5.7201    2.8796 C.3       1 <0>         0.0000
     14 C14        -1.7759   -3.3219    2.7975 C.3       1 <0>         0.0000
     15 C15        -1.7709    1.3632   -0.4531 C.3       1 <0>         0.0000
     16 C16        -2.1464   -4.5759    0.7818 C.3       1 <0>         0.0000
     17 N1         -1.5007   -4.5649    2.0481 N.3       1 <0>         0.0000
     18 O1         -3.4666   -3.2802   -1.3984 O.3       1 <0>         0.0000
     19 O2         -1.2497    1.3252   -1.7807 O.3       1 <0>         0.0000
     20 H1         -0.2484   -1.3290   -5.3219 H         1 <0>         0.0000
     21 H2         -1.0296   -3.3502   -4.1314 H         1 <0>         0.0000
     22 H3         -0.3500    0.8843   -4.2183 H         1 <0>         0.0000
     23 H4         -2.0236   -0.9425   -0.7032 H         1 <0>         0.0000
     24 H5         -0.3219   -6.3180   -0.5413 H         1 <0>         0.0000
     25 H6          1.1998   -5.8104   -1.2675 H         1 <0>         0.0000
     26 H7          0.0658   -4.7719   -3.1483 H         1 <0>         0.0000
     27 H8         -0.5493   -6.4089   -2.9720 H         1 <0>         0.0000
     28 H9          0.5525   -4.3347    0.6210 H         1 <0>         0.0000
     29 H10         0.6826   -3.4565   -0.8962 H         1 <0>         0.0000
     30 H11        -2.3542   -4.7274   -3.4080 H         1 <0>         0.0000
     31 H12        -2.5873   -5.6323   -1.9105 H         1 <0>         0.0000
     32 H13        -1.2956   -2.6749    0.2539 H         1 <0>         0.0000
     33 H14        -1.7011   -6.6528    2.3440 H         1 <0>         0.0000
     34 H15        -2.9621   -5.6673    3.1175 H         1 <0>         0.0000
     35 H16        -1.3284   -5.7254    3.8139 H         1 <0>         0.0000
     36 H17        -1.4904   -2.4521    2.2003 H         1 <0>         0.0000
     37 H18        -1.2071   -3.3098    3.7313 H         1 <0>         0.0000
     38 H19        -2.8408   -3.2517    3.0350 H         1 <0>         0.0000
     39 H20        -1.7594    2.3923   -0.0857 H         1 <0>         0.0000
     40 H21        -1.1642    0.7266    0.1958 H         1 <0>         0.0000
     41 H22        -2.7992    0.9941   -0.4642 H         1 <0>         0.0000
     42 H23        -2.1657   -5.5822    0.3917 H         1 <0>         0.0000
     43 H24        -3.1453   -4.1794    0.8795 H         1 <0>         0.0000
     44 H25        -3.8574   -3.1764   -2.2804 H         1 <0>         0.0000
@<TRIPOS>BOND
     1    1    2 ar
     2    1    3 ar
     3    2    5 ar
     4    3    6 ar
     5    4    5 ar
     6    4    6 ar
     7    5   12 1
     8    6   19 1
     9    7    8 1
    10    7    9 1
    11    8   10 1
    12    9   11 1
    13   10   12 1
    14   11   12 1
    15   11   16 1
    16   12   18 1
    17   13   17 1
    18   14   17 1
    19   15   19 1
    20   16   17 1
    21    1   20 1
    22    2   21 1
    23    3   22 1
    24    4   23 1
    25    7   24 1
    26    7   25 1
    27    8   26 1
    28    8   27 1
    29    9   28 1
    30    9   29 1
    31   10   30 1
    32   10   31 1
    33   11   32 1
    34   13   33 1
    35   13   34 1
    36   13   35 1
    37   14   36 1
    38   14   37 1
    39   14   38 1
    40   15   39 1
    41   15   40 1
    42   15   41 1
    43   16   42 1
    44   16   43 1
    45   18   44 1
@<TRIPOS>MOLECULE
*****
   44    45     0     0     0
SMALL
NO_CHARGES

@<TRIPOS>ATOM
      1 C1         -0.7308   -1.1561   -4.1979 C.ar      1 <0>         0.0000
      2 C2         -1.0929   -2.3315   -3.5400 C.ar      1 <0>         0.0000
      3 C3         -0.9202    0.0780   -3.5760 C.ar      1 <0>         0.0000
      4 C4         -1.8340   -1.0387   -1.6382 C.ar      1 <0>         0.0000
      5 C5         -1.6445   -2.2728   -2.2602 C.ar      1 <0>         0.0000
      6 C6         -1.4718    0.1367   -2.2962 C.ar      1 <0>         0.0000
      7 C7          0.3188   -5.3598   -0.9929 C.3       1 <0>         0.0000
      8 C8         -0.3209   -5.3118   -2.3740 C.3       1 <0>         0.0000
      9 C9          0.1058   -4.0572   -0.2290 C.3       1 <0>         0.0000
     10 C10        -1.7889   -4.8827   -2.3221 C.3       1 <0>         0.0000
     11 C11        -1.3803   -3.6707   -0.1179 C.3       1 <0>         0.0000
     12 C12        -2.0440   -3.5681   -1.5355 C.3       1 <0>         0.0000
     13 C13        -1.8414   -5.7504    2.9423 C.3       1 <0>         0.0000
     14 C14        -1.9304   -3.3506    2.8656 C.3       1 <0>         0.0000
     15 C15        -1.2630    2.5025   -2.4184 C.3       1 <0>         0.0000
     16 C16        -2.1179   -4.6252    0.8376 C.3       1 <0>         0.0000
     17 N1         -1.5205   -4.5618    2.1258 N.3       1 <0>         0.0000
     18 O1         -3.4700   -3.4432   -1.3872 O.3       1 <0>         0.0000
     19 O2         -1.6560    1.3410   -1.6891 O.3       1 <0>         0.0000
     20 H1         -0.3009   -1.2020   -5.1940 H         1 <0>         0.0000
     21 H2         -0.9420   -3.2884   -4.0327 H         1 <0>         0.0000
     22 H3         -0.6360    0.9899   -4.0937 H         1 <0>         0.0000
     23 H4         -2.2641   -0.9899   -0.6406 H         1 <0>         0.0000
     24 H5         -0.1015   -6.1950   -0.4212 H         1 <0>         0.0000
     25 H6          1.3940   -5.5526   -1.0931 H         1 <0>         0.0000
     26 H7          0.2394   -4.6114   -3.0123 H         1 <0>         0.0000
     27 H8         -0.2346   -6.2969   -2.8584 H         1 <0>         0.0000
     28 H9          0.5531   -4.1464    0.7721 H         1 <0>         0.0000
     29 H10         0.6584   -3.2548   -0.7392 H         1 <0>         0.0000
     30 H11        -2.1645   -4.7796   -3.3571 H         1 <0>         0.0000
     31 H12        -2.3692   -5.7068   -1.8691 H         1 <0>         0.0000
     32 H13        -1.4202   -2.6548    0.3409 H         1 <0>         0.0000
     33 H14        -1.5461   -6.6603    2.4135 H         1 <0>         0.0000
     34 H15        -2.9155   -5.7925    3.1426 H         1 <0>         0.0000
     35 H16        -1.3085   -5.7089    3.8960 H         1 <0>         0.0000
     36 H17        -1.7020   -2.4569    2.2792 H         1 <0>         0.0000
     37 H18        -1.3980   -3.2917    3.8188 H         1 <0>         0.0000
     38 H19        -3.0050   -3.3754    3.0654 H         1 <0>         0.0000
     39 H20        -1.4639    3.3946   -1.8202 H         1 <0>         0.0000
     40 H21        -1.8182    2.5487   -3.3587 H         1 <0>         0.0000
     41 H22        -0.1931    2.4431   -2.6319 H         1 <0>         0.0000
     42 H23        -2.0346   -5.6278    0.4465 H         1 <0>         0.0000
     43 H24        -3.1507   -4.3187    0.9001 H         1 <0>         0.0000
     44 H25        -3.8373   -3.3712   -2.2824 H         1 <0>         0.0000
@<TRIPOS>BOND
     1    1    2 ar
     2    1    3 ar
     3    2    5 ar
     4    3    6 ar
     5    4    5 ar
     6    4    6 ar
     7    5   12 1
     8    6   19 1
     9    7    8 1
    10    7    9 1
    11    8   10 1
    12    9   11 1
    13   10   12 1
    14   11   12 1
    15   11   16 1
    16   12   18 1
    17   13   17 1
    18   14   17 1
    19   15   19 1
    20   16   17 1
    21    1   20 1
    22    2   21 1
    23    3   22 1
    24    4   23 1
    25    7   24 1
    26    7   25 1
    27    8   26 1
    28    8   27 1
    29    9   28 1
    30    9   29 1
    31   10   30 1
    32   10   31 1
    33   11   32 1
    34   13   33 1
    35   13   34 1
    36   13   35 1
    37   14   36 1
    38   14   37 1
    39   14   38 1
    40   15   39 1
    41   15   40 1
    42   15   41 1
    43   16   42 1
    44   16   43 1
    45   18   44 1
@<TRIPOS>MOLECULE
*****
   44    45     0     0     0
SMALL
NO_CHARGES

@<TRIPOS>ATOM
      1 C1         -1.2554    0.2983   -1.8010 C.ar      1 <0>         0.0000
      2 C2         -1.6662   -0.8997   -1.2164 C.ar      1 <0>         0.0000
      3 C3         -0.8188    0.3142   -3.1257 C.ar      1 <0>         0.0000
      4 C4         -1.2038   -2.0658   -3.2812 C.ar      1 <0>         0.0000
      5 C5         -1.6404   -2.0817   -1.9565 C.ar      1 <0>         0.0000
      6 C6         -0.7930   -0.8678   -3.8658 C.ar      1 <0>         0.0000
      7 C7          0.1374   -5.4230   -1.1408 C.3       1 <0>         0.0000
      8 C8         -0.6078   -5.1948   -2.4491 C.3       1 <0>         0.0000
      9 C9          0.1058   -4.1840   -0.2523 C.3       1 <0>         0.0000
     10 C10        -2.0221   -4.6540   -2.2279 C.3       1 <0>         0.0000
     11 C11        -1.3254   -3.6895    0.0257 C.3       1 <0>         0.0000
     12 C12        -2.0926   -3.4018   -1.3120 C.3       1 <0>         0.0000
     13 C13        -1.7152   -6.0000    2.9261 C.3       1 <0>         0.0000
     14 C14        -1.5953   -3.6043    3.0632 C.3       1 <0>         0.0000
     15 C15        -0.3668   -2.0962   -5.8571 C.3       1 <0>         0.0000
     16 C16        -2.0636   -4.6653    0.9590 C.3       1 <0>         0.0000
     17 N1         -1.3581   -4.7708    2.1885 N.3       1 <0>         0.0000
     18 O1         -3.4844   -3.1752   -1.0249 O.3       1 <0>         0.0000
     19 O2         -0.3676   -0.8521   -5.1587 O.3       1 <0>         0.0000
     20 H1         -1.2760    1.2186   -1.2248 H         1 <0>         0.0000
     21 H2         -2.0043   -0.9023   -0.1835 H         1 <0>         0.0000
     22 H3         -0.5002    1.2505   -3.5752 H         1 <0>         0.0000
     23 H4         -1.1823   -2.9859   -3.8606 H         1 <0>         0.0000
     24 H5         -0.3070   -6.2706   -0.6070 H         1 <0>         0.0000
     25 H6          1.1791   -5.6928   -1.3542 H         1 <0>         0.0000
     26 H7         -0.0420   -4.4862   -3.0733 H         1 <0>         0.0000
     27 H8         -0.6504   -6.1344   -3.0218 H         1 <0>         0.0000
     28 H9          0.6249   -4.4021    0.6928 H         1 <0>         0.0000
     29 H10         0.6838   -3.3854   -0.7401 H         1 <0>         0.0000
     30 H11        -2.4716   -4.4248   -3.2120 H         1 <0>         0.0000
     31 H12        -2.6342   -5.4665   -1.7963 H         1 <0>         0.0000
     32 H13        -1.2361   -2.7207    0.5713 H         1 <0>         0.0000
     33 H14        -1.5473   -6.8779    2.2969 H         1 <0>         0.0000
     34 H15        -2.7684   -5.9728    3.2185 H         1 <0>         0.0000
     35 H16        -1.1034   -6.0909    3.8276 H         1 <0>         0.0000
     36 H17        -1.3373   -2.6815    2.5370 H         1 <0>         0.0000
     37 H18        -0.9825   -3.6779    3.9658 H         1 <0>         0.0000
     38 H19        -2.6475   -3.5597    3.3567 H         1 <0>         0.0000
     39 H20        -0.0054   -1.9422   -6.8768 H         1 <0>         0.0000
     40 H21        -1.3802   -2.5050   -5.8761 H         1 <0>         0.0000
     41 H22         0.2958   -2.7939   -5.3396 H         1 <0>         0.0000
     42 H23        -2.1030   -5.6307    0.4777 H         1 <0>         0.0000
     43 H24        -3.0560   -4.2826    1.1408 H         1 <0>         0.0000
     44 H25        -3.9168   -2.9905   -1.8737 H         1 <0>         0.0000
@<TRIPOS>BOND
     1    1    2 ar
     2    1    3 ar
     3    2    5 ar
     4    3    6 ar
     5    4    5 ar
     6    4    6 ar
     7    5   12 1
     8    6   19 1
     9    7    8 1
    10    7    9 1
    11    8   10 1
    12    9   11 1
    13   10   12 1
    14   11   12 1
    15   11   16 1
    16   12   18 1
    17   13   17 1
    18   14   17 1
    19   15   19 1
    20   16   17 1
    21    1   20 1
    22    2   21 1
    23    3   22 1
    24    4   23 1
    25    7   24 1
    26    7   25 1
    27    8   26 1
    28    8   27 1
    29    9   28 1
    30    9   29 1
    31   10   30 1
    32   10   31 1
    33   11   32 1
    34   13   33 1
    35   13   34 1
    36   13   35 1
    37   14   36 1
    38   14   37 1
    39   14   38 1
    40   15   39 1
    41   15   40 1
    42   15   41 1
    43   16   42 1
    44   16   43 1
    45   18   44 1
@<TRIPOS>MOLECULE
*****
   44    45     0     0     0
SMALL
NO_CHARGES

@<TRIPOS>ATOM
      1 C1         -1.3497    0.2067   -1.7517 C.ar      1 <0>         0.0000
      2 C2         -1.7223   -0.9899   -1.1394 C.ar      1 <0>         0.0000
      3 C3         -0.9271    0.2078   -3.0811 C.ar      1 <0>         0.0000
      4 C4         -1.2497   -2.1842   -3.1858 C.ar      1 <0>         0.0000
      5 C5         -1.6723   -2.1854   -1.8564 C.ar      1 <0>         0.0000
      6 C6         -0.8771   -0.9876   -3.7981 C.ar      1 <0>         0.0000
      7 C7          0.2025   -5.4612   -0.9943 C.3       1 <0>         0.0000
      8 C8         -0.5617   -5.2790   -2.2988 C.3       1 <0>         0.0000
      9 C9          0.1467   -4.2061   -0.1299 C.3       1 <0>         0.0000
     10 C10        -1.9877   -4.7718   -2.0732 C.3       1 <0>         0.0000
     11 C11        -1.2944   -3.7444    0.1534 C.3       1 <0>         0.0000
     12 C12        -2.0825   -3.5039   -1.1814 C.3       1 <0>         0.0000
     13 C13        -1.5928   -6.0062    3.1026 C.3       1 <0>         0.0000
     14 C14        -1.5358   -3.6060    3.1914 C.3       1 <0>         0.0000
     15 C15        -0.0996    0.2723   -5.6593 C.3       1 <0>         0.0000
     16 C16        -1.9967   -4.7207    1.1135 C.3       1 <0>         0.0000
     17 N1         -1.2763   -4.7830    2.3373 N.3       1 <0>         0.0000
     18 O1         -3.4769   -3.3087   -0.8841 O.3       1 <0>         0.0000
     19 O2         -0.4653   -0.9863   -5.0955 O.3       1 <0>         0.0000
     20 H1         -1.3891    1.1374   -1.1936 H         1 <0>         0.0000
     21 H2         -2.0498   -0.9810   -0.1032 H         1 <0>         0.0000
     22 H3         -0.6382    1.1432   -3.5523 H         1 <0>         0.0000
     23 H4         -1.2094   -3.1148   -3.7472 H         1 <0>         0.0000
     24 H5         -0.2136   -6.3096   -0.4392 H         1 <0>         0.0000
     25 H6          1.2488   -5.7075   -1.2133 H         1 <0>         0.0000
     26 H7         -0.0214   -4.5682   -2.9428 H         1 <0>         0.0000
     27 H8         -0.5849   -6.2306   -2.8524 H         1 <0>         0.0000
     28 H9          0.6809   -4.3915    0.8138 H         1 <0>         0.0000
     29 H10         0.6981   -3.4023   -0.6394 H         1 <0>         0.0000
     30 H11        -2.4530   -4.5742   -3.0568 H         1 <0>         0.0000
     31 H12        -2.5734   -5.5915   -1.6193 H         1 <0>         0.0000
     32 H13        -1.2256   -2.7630    0.6790 H         1 <0>         0.0000
     33 H14        -1.4078   -6.8917    2.4890 H         1 <0>         0.0000
     34 H15        -2.6434   -6.0012    3.4056 H         1 <0>         0.0000
     35 H16        -0.9698   -6.0629    3.9992 H         1 <0>         0.0000
     36 H17        -1.3080   -2.6873    2.6445 H         1 <0>         0.0000
     37 H18        -0.9122   -3.6452    4.0887 H         1 <0>         0.0000
     38 H19        -2.5859   -3.5835    3.4951 H         1 <0>         0.0000
     39 H20         0.2090    0.1313   -6.6980 H         1 <0>         0.0000
     40 H21         0.7190    0.7077   -5.0807 H         1 <0>         0.0000
     41 H22        -0.9629    0.9411   -5.6256 H         1 <0>         0.0000
     42 H23        -2.0151   -5.6962    0.6517 H         1 <0>         0.0000
     43 H24        -2.9972   -4.3610    1.2983 H         1 <0>         0.0000
     44 H25        -3.9226   -3.1526   -1.7317 H         1 <0>         0.0000
@<TRIPOS>BOND
     1    1    2 ar
     2    1    3 ar
     3    2    5 ar
     4    3    6 ar
     5    4    5 ar
     6    4    6 ar
     7    5   12 1
     8    6   19 1
     9    7    8 1
    10    7    9 1
    11    8   10 1
    12    9   11 1
    13   10   12 1
    14   11   12 1
    15   11   16 1
    16   12   18 1
    17   13   17 1
    18   14   17 1
    19   15   19 1
    20   16   17 1
    21    1   20 1
    22    2   21 1
    23    3   22 1
    24    4   23 1
    25    7   24 1
    26    7   25 1
    27    8   26 1
    28    8   27 1
    29    9   28 1
    30    9   29 1
    31   10   30 1
    32   10   31 1
    33   11   32 1
    34   13   33 1
    35   13   34 1
    36   13   35 1
    37   14   36 1
    38   14   37 1
    39   14   38 1
    40   15   39 1
    41   15   40 1
    42   15   41 1
    43   16   42 1
    44   16   43 1
    45   18   44 1
@<TRIPOS>MOLECULE
*****
   44    45     0     0     0
SMALL
NO_CHARGES

@<TRIPOS>ATOM
      1 C1         -1.1974   -3.7755    2.3475 C.ar      1 <0>         0.0000
      2 C2         -0.6321   -3.9222    1.0808 C.ar      1 <0>         0.0000
      3 C3         -2.5799   -3.8666    2.5092 C.ar      1 <0>         0.0000
      4 C4         -2.8318   -4.2508    0.1373 C.ar      1 <0>         0.0000
      5 C5         -1.4493   -4.1598   -0.0243 C.ar      1 <0>         0.0000
      6 C6         -3.3971   -4.1042    1.4040 C.ar      1 <0>         0.0000
      7 C7         -1.1066   -4.8275   -4.3467 C.3       1 <0>         0.0000
      8 C8         -0.6266   -5.9231   -3.4040 C.3       1 <0>         0.0000
      9 C9         -0.7535   -3.4398   -3.8221 C.3       1 <0>         0.0000
     10 C10        -1.1724   -5.7179   -1.9909 C.3       1 <0>         0.0000
     11 C11        -1.2980   -3.2024   -2.3989 C.3       1 <0>         0.0000
     12 C12        -0.8278   -4.3205   -1.4168 C.3       1 <0>         0.0000
     13 C13        -0.7010    0.4581   -2.7566 C.3       1 <0>         0.0000
     14 C14        -2.8572   -0.5900   -2.6000 C.3       1 <0>         0.0000
     15 C15        -5.5221   -4.4381    0.3899 C.3       1 <0>         0.0000
     16 C16        -0.8852   -1.7950   -1.9428 C.3       1 <0>         0.0000
     17 N1         -1.4194   -0.8301   -2.8395 N.3       1 <0>         0.0000
     18 O1          0.6048   -4.2376   -1.3407 O.3       1 <0>         0.0000
     19 O2         -4.7461   -4.1937    1.5619 O.3       1 <0>         0.0000
     20 H1         -0.5610   -3.5910    3.2079 H         1 <0>         0.0000
     21 H2          0.4460   -3.8492    0.9647 H         1 <0>         0.0000
     22 H3         -3.0140   -3.7515    3.4984 H         1 <0>         0.0000
     23 H4         -3.4715   -4.4358   -0.7226 H         1 <0>         0.0000
     24 H5         -0.6589   -4.9720   -5.3365 H         1 <0>         0.0000
     25 H6         -2.1933   -4.9047   -4.4745 H         1 <0>         0.0000
     26 H7         -0.9524   -6.8991   -3.7819 H         1 <0>         0.0000
     27 H8          0.4693   -5.9437   -3.3856 H         1 <0>         0.0000
     28 H9          0.3356   -3.3095   -3.8405 H         1 <0>         0.0000
     29 H10        -1.1678   -2.6874   -4.5046 H         1 <0>         0.0000
     30 H11        -2.2613   -5.8612   -2.0071 H         1 <0>         0.0000
     31 H12        -0.7552   -6.5016   -1.3451 H         1 <0>         0.0000
     32 H13        -2.3965   -3.2243   -2.4540 H         1 <0>         0.0000
     33 H14         0.3671    0.3044   -2.9310 H         1 <0>         0.0000
     34 H15        -0.8355    0.9029   -1.7669 H         1 <0>         0.0000
     35 H16        -1.0839    1.1535   -3.5083 H         1 <0>         0.0000
     36 H17        -3.4098   -1.5315   -2.6567 H         1 <0>         0.0000
     37 H18        -3.2558    0.0978   -3.3507 H         1 <0>         0.0000
     38 H19        -3.0075   -0.1528   -1.6092 H         1 <0>         0.0000
     39 H20        -6.5808   -4.4865    0.6564 H         1 <0>         0.0000
     40 H21        -5.2070   -5.3796   -0.0671 H         1 <0>         0.0000
     41 H22        -5.3640   -3.6209   -0.3179 H         1 <0>         0.0000
     42 H23         0.1928   -1.7392   -1.9479 H         1 <0>         0.0000
     43 H24        -1.2767   -1.6262   -0.9515 H         1 <0>         0.0000
     44 H25         0.8941   -4.9561   -0.7563 H         1 <0>         0.0000
@<TRIPOS>BOND
     1    1    2 ar
     2    1    3 ar
     3    2    5 ar
     4    3    6 ar
     5    4    5 ar
     6    4    6 ar
     7    5   12 1
     8    6   19 1
     9    7    8 1
    10    7    9 1
    11    8   10 1
    12    9   11 1
    13   10   12 1
    14   11   12 1
    15   11   16 1
    16   12   18 1
    17   13   17 1
    18   14   17 1
    19   15   19 1
    20   16   17 1
    21    1   20 1
    22    2   21 1
    23    3   22 1
    24    4   23 1
    25    7   24 1
    26    7   25 1
    27    8   26 1
    28    8   27 1
    29    9   28 1
    30    9   29 1
    31   10   30 1
    32   10   31 1
    33   11   32 1
    34   13   33 1
    35   13   34 1
    36   13   35 1
    37   14   36 1
    38   14   37 1
    39   14   38 1
    40   15   39 1
    41   15   40 1
    42   15   41 1
    43   16   42 1
    44   16   43 1
    45   18   44 1
@<TRIPOS>MOLECULE
*****
   44    45     0     0     0
SMALL
NO_CHARGES

@<TRIPOS>ATOM
      1 C1         -2.2000   -0.8849   -3.8317 C.ar      1 <0>         0.0000
      2 C2         -2.0267   -2.2401   -3.5512 C.ar      1 <0>         0.0000
      3 C3         -1.6524    0.0784   -2.9844 C.ar      1 <0>         0.0000
      4 C4         -0.7583   -1.6690   -1.5758 C.ar      1 <0>         0.0000
      5 C5         -1.3059   -2.6322   -2.4232 C.ar      1 <0>         0.0000
      6 C6         -0.9316   -0.3137   -1.8564 C.ar      1 <0>         0.0000
      7 C7          0.5080   -6.3567   -0.9790 C.3       1 <0>         0.0000
      8 C8          0.4540   -6.1119   -2.4812 C.3       1 <0>         0.0000
      9 C9         -0.7652   -5.8828   -0.2860 C.3       1 <0>         0.0000
     10 C10         0.1761   -4.6417   -2.7944 C.3       1 <0>         0.0000
     11 C11        -1.0670   -4.3992   -0.5795 C.3       1 <0>         0.0000
     12 C12        -1.1159   -4.1222   -2.1146 C.3       1 <0>         0.0000
     13 C13        -3.4396   -3.8542    2.2834 C.3       1 <0>         0.0000
     14 C14        -1.0807   -3.4429    2.0866 C.3       1 <0>         0.0000
     15 C15         0.3283    0.1559    0.1053 C.3       1 <0>         0.0000
     16 C16        -2.3679   -4.0104    0.1388 C.3       1 <0>         0.0000
     17 N1         -2.2158   -4.2126    1.5376 N.3       1 <0>         0.0000
     18 O1         -2.2091   -4.8890   -2.6454 O.3       1 <0>         0.0000
     19 O2         -0.3967    0.6264   -1.0299 O.3       1 <0>         0.0000
     20 H1         -2.7608   -0.5797   -4.7101 H         1 <0>         0.0000
     21 H2         -2.4574   -2.9834   -4.2169 H         1 <0>         0.0000
     22 H3         -1.7910    1.1324   -3.2084 H         1 <0>         0.0000
     23 H4         -0.1960   -1.9717   -0.6955 H         1 <0>         0.0000
     24 H5          0.6567   -7.4250   -0.7857 H         1 <0>         0.0000
     25 H6          1.3727   -5.8326   -0.5535 H         1 <0>         0.0000
     26 H7          1.4077   -6.4065   -2.9340 H         1 <0>         0.0000
     27 H8         -0.3173   -6.7461   -2.9335 H         1 <0>         0.0000
     28 H9         -1.6069   -6.5126   -0.5998 H         1 <0>         0.0000
     29 H10        -0.6548   -6.0286    0.7956 H         1 <0>         0.0000
     30 H11         1.0386   -4.0417   -2.4741 H         1 <0>         0.0000
     31 H12         0.0962   -4.5325   -3.8839 H         1 <0>         0.0000
     32 H13        -0.2546   -3.8005   -0.1416 H         1 <0>         0.0000
     33 H14        -4.2944   -4.4130    1.8935 H         1 <0>         0.0000
     34 H15        -3.6433   -2.7846    2.1839 H         1 <0>         0.0000
     35 H16        -3.3188   -4.0907    3.3440 H         1 <0>         0.0000
     36 H17        -0.1624   -3.6925    1.5487 H         1 <0>         0.0000
     37 H18        -0.9427   -3.6765    3.1458 H         1 <0>         0.0000
     38 H19        -1.2672   -2.3704    1.9857 H         1 <0>         0.0000
     39 H20         0.7008    1.0078    0.6793 H         1 <0>         0.0000
     40 H21         1.1631   -0.4665   -0.2268 H         1 <0>         0.0000
     41 H22        -0.3401   -0.4389    0.7324 H         1 <0>         0.0000
     42 H23        -3.1626   -4.6378   -0.2354 H         1 <0>         0.0000
     43 H24        -2.5714   -2.9692   -0.0581 H         1 <0>         0.0000
     44 H25        -2.2134   -4.7401   -3.6042 H         1 <0>         0.0000
@<TRIPOS>BOND
     1    1    2 ar
     2    1    3 ar
     3    2    5 ar
     4    3    6 ar
     5    4    5 ar
     6    4    6 ar
     7    5   12 1
     8    6   19 1
     9    7    8 1
    10    7    9 1
    11    8   10 1
    12    9   11 1
    13   10   12 1
    14   11   12 1
    15   11   16 1
    16   12   18 1
    17   13   17 1
    18   14   17 1
    19   15   19 1
    20   16   17 1
    21    1   20 1
    22    2   21 1
    23    3   22 1
    24    4   23 1
    25    7   24 1
    26    7   25 1
    27    8   26 1
    28    8   27 1
    29    9   28 1
    30    9   29 1
    31   10   30 1
    32   10   31 1
    33   11   32 1
    34   13   33 1
    35   13   34 1
    36   13   35 1
    37   14   36 1
    38   14   37 1
    39   14   38 1
    40   15   39 1
    41   15   40 1
    42   15   41 1
    43   16   42 1
    44   16   43 1
    45   18   44 1
@<TRIPOS>MOLECULE
*****
   44    45     0     0     0
SMALL
NO_CHARGES

@<TRIPOS>ATOM
      1 C1         -3.9170   -4.6335    0.8126 C.ar      1 <0>         0.0000
      2 C2         -3.1470   -4.1435   -0.2422 C.ar      1 <0>         0.0000
      3 C3         -3.4059   -4.6282    2.1105 C.ar      1 <0>         0.0000
      4 C4         -1.3548   -3.6428    1.2987 C.ar      1 <0>         0.0000
      5 C5         -1.8659   -3.6482    0.0008 C.ar      1 <0>         0.0000
      6 C6         -2.1248   -4.1328    2.3535 C.ar      1 <0>         0.0000
      7 C7         -0.5774   -5.2014   -3.2811 C.3       1 <0>         0.0000
      8 C8          0.1056   -5.2871   -1.9221 C.3       1 <0>         0.0000
      9 C9         -1.8873   -4.4223   -3.2063 C.3       1 <0>         0.0000
     10 C10         0.3102   -3.9025   -1.3139 C.3       1 <0>         0.0000
     11 C11        -1.7315   -3.0299   -2.5566 C.3       1 <0>         0.0000
     12 C12        -1.0168   -3.1083   -1.1625 C.3       1 <0>         0.0000
     13 C13        -2.6400   -0.2875   -3.6250 C.3       1 <0>         0.0000
     14 C14        -0.2897    0.2045   -3.7052 C.3       1 <0>         0.0000
     15 C15        -0.3099   -3.6065    3.7974 C.3       1 <0>         0.0000
     16 C16        -1.0355   -2.0740   -3.5458 C.3       1 <0>         0.0000
     17 N1         -1.3043   -0.7286   -3.1739 N.3       1 <0>         0.0000
     18 O1         -0.6933   -1.7686   -0.7504 O.3       1 <0>         0.0000
     19 O2         -1.6263   -4.1270    3.6202 O.3       1 <0>         0.0000
     20 H1         -4.9145   -5.0187    0.6234 H         1 <0>         0.0000
     21 H2         -3.5535   -4.1522   -1.2501 H         1 <0>         0.0000
     22 H3         -4.0106   -5.0112    2.9277 H         1 <0>         0.0000
     23 H4         -0.3562   -3.2575    1.4911 H         1 <0>         0.0000
     24 H5          0.0955   -4.7217   -4.0011 H         1 <0>         0.0000
     25 H6         -0.7751   -6.2134   -3.6559 H         1 <0>         0.0000
     26 H7         -0.5047   -5.8969   -1.2451 H         1 <0>         0.0000
     27 H8          1.0689   -5.8020   -2.0233 H         1 <0>         0.0000
     28 H9         -2.3100   -4.3238   -4.2192 H         1 <0>         0.0000
     29 H10        -2.6184   -5.0144   -2.6330 H         1 <0>         0.0000
     30 H11         0.7955   -4.0117   -0.3336 H         1 <0>         0.0000
     31 H12         1.0070   -3.3441   -1.9542 H         1 <0>         0.0000
     32 H13        -2.7562   -2.6304   -2.3895 H         1 <0>         0.0000
     33 H14        -3.4083   -0.9647   -3.2428 H         1 <0>         0.0000
     34 H15        -2.6873   -0.2822   -4.7174 H         1 <0>         0.0000
     35 H16        -2.8478    0.7221   -3.2604 H         1 <0>         0.0000
     36 H17         0.7086   -0.1030   -3.3833 H         1 <0>         0.0000
     37 H18        -0.4804    1.2176   -3.3411 H         1 <0>         0.0000
     38 H19        -0.3199    0.2134   -4.7981 H         1 <0>         0.0000
     39 H20        -0.0351   -3.6604    4.8537 H         1 <0>         0.0000
     40 H21        -0.2779   -2.5694    3.4541 H         1 <0>         0.0000
     41 H22         0.3909   -4.2045    3.2100 H         1 <0>         0.0000
     42 H23        -1.4271   -2.2638   -4.5336 H         1 <0>         0.0000
     43 H24         0.0276   -2.2558   -3.5094 H         1 <0>         0.0000
     44 H25        -1.5361   -1.3014   -0.6375 H         1 <0>         0.0000
@<TRIPOS>BOND
     1    1    2 ar
     2    1    3 ar
     3    2    5 ar
     4    3    6 ar
     5    4    5 ar
     6    4    6 ar
     7    5   12 1
     8    6   19 1
     9    7    8 1
    10    7    9 1
    11    8   10 1
    12    9   11 1
    13   10   12 1
    14   11   12 1
    15   11   16 1
    16   12   18 1
    17   13   17 1
    18   14   17 1
    19   15   19 1
    20   16   17 1
    21    1   20 1
    22    2   21 1
    23    3   22 1
    24    4   23 1
    25    7   24 1
    26    7   25 1
    27    8   26 1
    28    8   27 1
    29    9   28 1
    30    9   29 1
    31   10   30 1
    32   10   31 1
    33   11   32 1
    34   13   33 1
    35   13   34 1
    36   13   35 1
    37   14   36 1
    38   14   37 1
    39   14   38 1
    40   15   39 1
    41   15   40 1
    42   15   41 1
    43   16   42 1
    44   16   43 1
    45   18   44 1
@<TRIPOS>MOLECULE
*****
   44    45     0     0     0
SMALL
NO_CHARGES

@<TRIPOS>ATOM
      1 C1         -3.8419   -4.5511    0.7925 C.ar      1 <0>         0.0000
      2 C2         -3.1195   -4.0699   -0.2993 C.ar      1 <0>         0.0000
      3 C3         -3.2823   -4.5151    2.0698 C.ar      1 <0>         0.0000
      4 C4         -1.2776   -3.5168    1.1633 C.ar      1 <0>         0.0000
      5 C5         -1.8373   -3.5528   -0.1139 C.ar      1 <0>         0.0000
      6 C6         -2.0001   -3.9980    2.2551 C.ar      1 <0>         0.0000
      7 C7         -0.6515   -5.1478   -3.4145 C.3       1 <0>         0.0000
      8 C8          0.0835   -5.1994   -2.0812 C.3       1 <0>         0.0000
      9 C9         -1.9687   -4.3854   -3.3038 C.3       1 <0>         0.0000
     10 C10         0.2910   -3.8012   -1.5058 C.3       1 <0>         0.0000
     11 C11        -1.8086   -2.9794   -2.6852 C.3       1 <0>         0.0000
     12 C12        -1.0406   -3.0227   -1.3181 C.3       1 <0>         0.0000
     13 C13        -2.7960   -0.2696   -3.7666 C.3       1 <0>         0.0000
     14 C14        -0.4577    0.2529   -3.9448 C.3       1 <0>         0.0000
     15 C15        -2.2484   -4.4700    4.5727 C.3       1 <0>         0.0000
     16 C16        -1.1641   -2.0322   -3.7168 C.3       1 <0>         0.0000
     17 N1         -1.4380   -0.6841   -3.3588 N.3       1 <0>         0.0000
     18 O1         -0.7210   -1.6714   -0.9424 O.3       1 <0>         0.0000
     19 O2         -1.4543   -3.9623    3.5016 O.3       1 <0>         0.0000
     20 H1         -4.8403   -4.9533    0.6482 H         1 <0>         0.0000
     21 H2         -3.5636   -4.1025   -1.2906 H         1 <0>         0.0000
     22 H3         -3.8501   -4.8915    2.9160 H         1 <0>         0.0000
     23 H4         -0.2781   -3.1144    1.3107 H         1 <0>         0.0000
     24 H5         -0.0133   -4.6721   -4.1680 H         1 <0>         0.0000
     25 H6         -0.8487   -6.1690   -3.7636 H         1 <0>         0.0000
     26 H7         -0.4920   -5.8050   -1.3708 H         1 <0>         0.0000
     27 H8          1.0496   -5.7027   -2.2098 H         1 <0>         0.0000
     28 H9         -2.4308   -4.3111   -4.3014 H         1 <0>         0.0000
     29 H10        -2.6690   -4.9769   -2.6927 H         1 <0>         0.0000
     30 H11         0.8145   -3.8859   -0.5429 H         1 <0>         0.0000
     31 H12         0.9550   -3.2451   -2.1819 H         1 <0>         0.0000
     32 H13        -2.8318   -2.5909   -2.4863 H         1 <0>         0.0000
     33 H14        -3.5395   -0.9502   -3.3435 H         1 <0>         0.0000
     34 H15        -2.8847   -0.2849   -4.8563 H         1 <0>         0.0000
     35 H16        -3.0044    0.7435   -3.4122 H         1 <0>         0.0000
     36 H17         0.5564   -0.0349   -3.6557 H         1 <0>         0.0000
     37 H18        -0.6491    1.2699   -3.5916 H         1 <0>         0.0000
     38 H19        -0.5294    0.2415   -5.0357 H         1 <0>         0.0000
     39 H20        -1.6949   -4.3823    5.5108 H         1 <0>         0.0000
     40 H21        -2.4958   -5.5169    4.3797 H         1 <0>         0.0000
     41 H22        -3.1696   -3.8864    4.6399 H         1 <0>         0.0000
     42 H23        -1.5901   -2.2453   -4.6856 H         1 <0>         0.0000
     43 H24        -0.0980   -2.1988   -3.7177 H         1 <0>         0.0000
     44 H25        -1.5656   -1.2137   -0.8058 H         1 <0>         0.0000
@<TRIPOS>BOND
     1    1    2 ar
     2    1    3 ar
     3    2    5 ar
     4    3    6 ar
     5    4    5 ar
     6    4    6 ar
     7    5   12 1
     8    6   19 1
     9    7    8 1
    10    7    9 1
    11    8   10 1
    12    9   11 1
    13   10   12 1
    14   11   12 1
    15   11   16 1
    16   12   18 1
    17   13   17 1
    18   14   17 1
    19   15   19 1
    20   16   17 1
    21    1   20 1
    22    2   21 1
    23    3   22 1
    24    4   23 1
    25    7   24 1
    26    7   25 1
    27    8   26 1
    28    8   27 1
    29    9   28 1
    30    9   29 1
    31   10   30 1
    32   10   31 1
    33   11   32 1
    34   13   33 1
    35   13   34 1
    36   13   35 1
    37   14   36 1
    38   14   37 1
    39   14   38 1
    40   15   39 1
    41   15   40 1
    42   15   41 1
    43   16   42 1
    44   16   43 1
    45   18   44 1
@<TRIPOS>MOLECULE
*****
   44    45     0     0     0
SMALL
NO_CHARGES

@<TRIPOS>ATOM
      1 C1         -1.9624   -1.6466   -4.3843 C.ar      1 <0>         0.0000
      2 C2         -2.1427   -2.7519   -3.5528 C.ar      1 <0>         0.0000
      3 C3         -1.3591   -0.4912   -3.8877 C.ar      1 <0>         0.0000
      4 C4         -1.1166   -1.5462   -1.7278 C.ar      1 <0>         0.0000
      5 C5         -1.7198   -2.7017   -2.2245 C.ar      1 <0>         0.0000
      6 C6         -0.9362   -0.4410   -2.5594 C.ar      1 <0>         0.0000
      7 C7          0.6959   -4.9106   -0.1925 C.3       1 <0>         0.0000
      8 C8          0.3338   -5.0966   -1.6605 C.3       1 <0>         0.0000
      9 C9         -0.0085   -3.7003    0.4136 C.3       1 <0>         0.0000
     10 C10        -1.1780   -5.1713   -1.8555 C.3       1 <0>         0.0000
     11 C11        -1.5380   -3.7157    0.2003 C.3       1 <0>         0.0000
     12 C12        -1.9192   -3.9203   -1.3075 C.3       1 <0>         0.0000
     13 C13        -2.0443   -5.5839    3.3902 C.3       1 <0>         0.0000
     14 C14        -2.7334   -3.3190    2.9808 C.3       1 <0>         0.0000
     15 C15         0.0613    0.6695   -0.7080 C.3       1 <0>         0.0000
     16 C16        -2.1793   -4.7578    1.1382 C.3       1 <0>         0.0000
     17 N1         -1.8862   -4.4244    2.4886 N.3       1 <0>         0.0000
     18 O1         -3.3341   -4.1694   -1.3807 O.3       1 <0>         0.0000
     19 O2         -0.3470    0.6864   -2.0750 O.3       1 <0>         0.0000
     20 H1         -2.2912   -1.6860   -5.4185 H         1 <0>         0.0000
     21 H2         -2.6141   -3.6476   -3.9485 H         1 <0>         0.0000
     22 H3         -1.2216    0.3663   -4.5404 H         1 <0>         0.0000
     23 H4         -0.7861   -1.5041   -0.6926 H         1 <0>         0.0000
     24 H5          0.4272   -5.8124    0.3695 H         1 <0>         0.0000
     25 H6          1.7818   -4.7875   -0.0961 H         1 <0>         0.0000
     26 H7          0.7365   -4.2600   -2.2442 H         1 <0>         0.0000
     27 H8          0.8105   -6.0055   -2.0476 H         1 <0>         0.0000
     28 H9          0.2245   -3.6451    1.4893 H         1 <0>         0.0000
     29 H10         0.4143   -2.7856   -0.0317 H         1 <0>         0.0000
     30 H11        -1.3938   -5.2956   -2.9262 H         1 <0>         0.0000
     31 H12        -1.5469   -6.0739   -1.3490 H         1 <0>         0.0000
     32 H13        -1.9223   -2.7201    0.5143 H         1 <0>         0.0000
     33 H14        -1.4251   -6.4158    3.0446 H         1 <0>         0.0000
     34 H15        -3.0886   -5.9072    3.4105 H         1 <0>         0.0000
     35 H16        -1.7403   -5.3171    4.4059 H         1 <0>         0.0000
     36 H17        -2.6322   -2.4484    2.3276 H         1 <0>         0.0000
     37 H18        -2.4343   -3.0356    3.9936 H         1 <0>         0.0000
     38 H19        -3.7827   -3.6258    2.9983 H         1 <0>         0.0000
     39 H20         0.5159    1.6293   -0.4508 H         1 <0>         0.0000
     40 H21         0.7793   -0.1395   -0.5513 H         1 <0>         0.0000
     41 H22        -0.8152    0.5034   -0.0773 H         1 <0>         0.0000
     42 H23        -1.7640   -5.7262    0.9038 H         1 <0>         0.0000
     43 H24        -3.2474   -4.7474    0.9846 H         1 <0>         0.0000
     44 H25        -3.7746   -3.3671   -1.0588 H         1 <0>         0.0000
@<TRIPOS>BOND
     1    1    2 ar
     2    1    3 ar
     3    2    5 ar
     4    3    6 ar
     5    4    5 ar
     6    4    6 ar
     7    5   12 1
     8    6   19 1
     9    7    8 1
    10    7    9 1
    11    8   10 1
    12    9   11 1
    13   10   12 1
    14   11   12 1
    15   11   16 1
    16   12   18 1
    17   13   17 1
    18   14   17 1
    19   15   19 1
    20   16   17 1
    21    1   20 1
    22    2   21 1
    23    3   22 1
    24    4   23 1
    25    7   24 1
    26    7   25 1
    27    8   26 1
    28    8   27 1
    29    9   28 1
    30    9   29 1
    31   10   30 1
    32   10   31 1
    33   11   32 1
    34   13   33 1
    35   13   34 1
    36   13   35 1
    37   14   36 1
    38   14   37 1
    39   14   38 1
    40   15   39 1
    41   15   40 1
    42   15   41 1
    43   16   42 1
    44   16   43 1
    45   18   44 1
@<TRIPOS>MOLECULE
*****
   44    45     0     0     0
SMALL
NO_CHARGES

@<TRIPOS>ATOM
      1 C1         -2.5422   -1.6737   -4.0788 C.ar      1 <0>         0.0000
      2 C2         -2.5552   -2.7788   -3.2279 C.ar      1 <0>         0.0000
      3 C3         -1.7371   -0.5740   -3.7817 C.ar      1 <0>         0.0000
      4 C4         -0.9579   -1.6848   -1.7827 C.ar      1 <0>         0.0000
      5 C5         -1.7630   -2.7844   -2.0798 C.ar      1 <0>         0.0000
      6 C6         -0.9449   -0.5796   -2.6336 C.ar      1 <0>         0.0000
      7 C7          0.9673   -5.1990   -0.8314 C.3       1 <0>         0.0000
      8 C8          0.1826   -5.3305   -2.1304 C.3       1 <0>         0.0000
      9 C9          0.5605   -3.9532   -0.0498 C.3       1 <0>         0.0000
     10 C10        -1.3220   -5.2930   -1.8778 C.3       1 <0>         0.0000
     11 C11        -0.9620   -3.8549    0.1903 C.3       1 <0>         0.0000
     12 C12        -1.7778   -4.0029   -1.1414 C.3       1 <0>         0.0000
     13 C13        -2.4751   -3.4018    2.8346 C.3       1 <0>         0.0000
     14 C14        -3.3334   -5.6140    2.4577 C.3       1 <0>         0.0000
     15 C15         0.6257    0.4210   -1.1546 C.3       1 <0>         0.0000
     16 C16        -1.3793   -4.8661    1.2766 C.3       1 <0>         0.0000
     17 N1         -2.6282   -4.4764    1.8326 N.3       1 <0>         0.0000
     18 O1         -3.1676   -4.1486   -0.7999 O.3       1 <0>         0.0000
     19 O2         -0.1587    0.4932   -2.3441 O.3       1 <0>         0.0000
     20 H1         -3.1586   -1.6696   -4.9729 H         1 <0>         0.0000
     21 H2         -3.1860   -3.6307   -3.4674 H         1 <0>         0.0000
     22 H3         -1.7315    0.2837   -4.4485 H         1 <0>         0.0000
     23 H4         -0.3394   -1.6862   -0.8881 H         1 <0>         0.0000
     24 H5          0.8071   -6.0898   -0.2132 H         1 <0>         0.0000
     25 H6          2.0406   -5.1558   -1.0548 H         1 <0>         0.0000
     26 H7          0.4597   -4.5139   -2.8081 H         1 <0>         0.0000
     27 H8          0.4580   -6.2637   -2.6369 H         1 <0>         0.0000
     28 H9          1.0986   -3.9353    0.9116 H         1 <0>         0.0000
     29 H10         0.9026   -3.0628   -0.6012 H         1 <0>         0.0000
     30 H11        -1.8474   -5.3811   -2.8394 H         1 <0>         0.0000
     31 H12        -1.5940   -6.1764   -1.2837 H         1 <0>         0.0000
     32 H13        -1.1639   -2.8405    0.5997 H         1 <0>         0.0000
     33 H14        -1.9547   -2.5478    2.3932 H         1 <0>         0.0000
     34 H15        -1.8972   -3.7622    3.6900 H         1 <0>         0.0000
     35 H16        -3.4557   -3.0720    3.1881 H         1 <0>         0.0000
     36 H17        -3.4581   -6.4228    1.7330 H         1 <0>         0.0000
     37 H18        -4.3203   -5.3003    2.8083 H         1 <0>         0.0000
     38 H19        -2.7619   -5.9905    3.3104 H         1 <0>         0.0000
     39 H20         1.2051    1.3408   -1.0429 H         1 <0>         0.0000
     40 H21         1.2964   -0.4401   -1.2110 H         1 <0>         0.0000
     41 H22        -0.0402    0.3061   -0.2960 H         1 <0>         0.0000
     42 H23        -0.6228   -4.8683    2.0466 H         1 <0>         0.0000
     43 H24        -1.4718   -5.8404    0.8221 H         1 <0>         0.0000
     44 H25        -3.4352   -3.3230   -0.3660 H         1 <0>         0.0000
@<TRIPOS>BOND
     1    1    2 ar
     2    1    3 ar
     3    2    5 ar
     4    3    6 ar
     5    4    5 ar
     6    4    6 ar
     7    5   12 1
     8    6   19 1
     9    7    8 1
    10    7    9 1
    11    8   10 1
    12    9   11 1
    13   10   12 1
    14   11   12 1
    15   11   16 1
    16   12   18 1
    17   13   17 1
    18   14   17 1
    19   15   19 1
    20   16   17 1
    21    1   20 1
    22    2   21 1
    23    3   22 1
    24    4   23 1
    25    7   24 1
    26    7   25 1
    27    8   26 1
    28    8   27 1
    29    9   28 1
    30    9   29 1
    31   10   30 1
    32   10   31 1
    33   11   32 1
    34   13   33 1
    35   13   34 1
    36   13   35 1
    37   14   36 1
    38   14   37 1
    39   14   38 1
    40   15   39 1
    41   15   40 1
    42   15   41 1
    43   16   42 1
    44   16   43 1
    45   18   44 1
@<TRIPOS>MOLECULE
*****
   44    45     0     0     0
SMALL
NO_CHARGES

@<TRIPOS>ATOM
      1 C1         -0.4356   -0.3797   -0.9708 C.ar      1 <0>         0.0000
      2 C2         -0.4132   -1.7706   -0.8686 C.ar      1 <0>         0.0000
      3 C3         -1.0723    0.2300   -2.0518 C.ar      1 <0>         0.0000
      4 C4         -1.6641   -1.9421   -2.9284 C.ar      1 <0>         0.0000
      5 C5         -1.0273   -2.5518   -1.8474 C.ar      1 <0>         0.0000
      6 C6         -1.6865   -0.5512   -3.0306 C.ar      1 <0>         0.0000
      7 C7          0.3433   -6.6036   -0.8720 C.3       1 <0>         0.0000
      8 C8          0.3671   -6.1618   -2.3292 C.3       1 <0>         0.0000
      9 C9         -0.8978   -6.0909   -0.1491 C.3       1 <0>         0.0000
     10 C10         0.2525   -4.6422   -2.4506 C.3       1 <0>         0.0000
     11 C11        -1.0353   -4.5582   -0.2496 C.3       1 <0>         0.0000
     12 C12        -1.0021   -4.0809   -1.7352 C.3       1 <0>         0.0000
     13 C13        -3.3158   -4.1587    2.6699 C.3       1 <0>         0.0000
     14 C14        -1.3169   -2.8833    2.2825 C.3       1 <0>         0.0000
     15 C15        -2.9158   -0.8146   -5.0493 C.3       1 <0>         0.0000
     16 C16        -2.3136   -4.1297    0.4865 C.3       1 <0>         0.0000
     17 N1         -2.0656   -4.0934    1.8857 N.3       1 <0>         0.0000
     18 O1         -2.1492   -4.6518   -2.3857 O.3       1 <0>         0.0000
     19 O2         -2.3084    0.0439   -4.0852 O.3       1 <0>         0.0000
     20 H1          0.0422    0.2285   -0.2085 H         1 <0>         0.0000
     21 H2          0.0857   -2.2366   -0.0230 H         1 <0>         0.0000
     22 H3         -1.0863    1.3138   -2.1257 H         1 <0>         0.0000
     23 H4         -2.1435   -2.5487   -3.6932 H         1 <0>         0.0000
     24 H5          0.3748   -7.6977   -0.8189 H         1 <0>         0.0000
     25 H6          1.2419   -6.2341   -0.3627 H         1 <0>         0.0000
     26 H7          1.3006   -6.4950   -2.7970 H         1 <0>         0.0000
     27 H8         -0.4491   -6.6464   -2.8777 H         1 <0>         0.0000
     28 H9         -1.7883   -6.5816   -0.5612 H         1 <0>         0.0000
     29 H10        -0.8406   -6.3866    0.9057 H         1 <0>         0.0000
     30 H11         1.1604   -4.1840   -2.0355 H         1 <0>         0.0000
     31 H12         0.2222   -4.3849   -3.5174 H         1 <0>         0.0000
     32 H13        -0.1816   -4.1111    0.2808 H         1 <0>         0.0000
     33 H14        -3.8873   -5.0482    2.3923 H         1 <0>         0.0000
     34 H15        -3.9282   -3.2732    2.4792 H         1 <0>         0.0000
     35 H16        -3.0897   -4.2050    3.7385 H         1 <0>         0.0000
     36 H17        -0.3859   -2.8141    1.7138 H         1 <0>         0.0000
     37 H18        -1.0762   -2.9204    3.3484 H         1 <0>         0.0000
     38 H19        -1.9147   -1.9886    2.0891 H         1 <0>         0.0000
     39 H20        -3.3756   -0.2119   -5.8365 H         1 <0>         0.0000
     40 H21        -3.6723   -1.4344   -4.5614 H         1 <0>         0.0000
     41 H22        -2.1481   -1.4570   -5.4870 H         1 <0>         0.0000
     42 H23        -3.0867   -4.8521    0.2724 H         1 <0>         0.0000
     43 H24        -2.5960   -3.1470    0.1416 H         1 <0>         0.0000
     44 H25        -2.1048   -4.3803   -3.3162 H         1 <0>         0.0000
@<TRIPOS>BOND
     1    1    2 ar
     2    1    3 ar
     3    2    5 ar
     4    3    6 ar
     5    4    5 ar
     6    4    6 ar
     7    5   12 1
     8    6   19 1
     9    7    8 1
    10    7    9 1
    11    8   10 1
    12    9   11 1
    13   10   12 1
    14   11   12 1
    15   11   16 1
    16   12   18 1
    17   13   17 1
    18   14   17 1
    19   15   19 1
    20   16   17 1
    21    1   20 1
    22    2   21 1
    23    3   22 1
    24    4   23 1
    25    7   24 1
    26    7   25 1
    27    8   26 1
    28    8   27 1
    29    9   28 1
    30    9   29 1
    31   10   30 1
    32   10   31 1
    33   11   32 1
    34   13   33 1
    35   13   34 1
    36   13   35 1
    37   14   36 1
    38   14   37 1
    39   14   38 1
    40   15   39 1
    41   15   40 1
    42   15   41 1
    43   16   42 1
    44   16   43 1
    45   18   44 1
@<TRIPOS>MOLECULE
*****
   44    45     0     0     0
SMALL
NO_CHARGES

@<TRIPOS>ATOM
      1 C1         -2.3537   -1.3360   -3.9511 C.ar      1 <0>         0.0000
      2 C2         -2.4344   -2.4813   -3.1590 C.ar      1 <0>         0.0000
      3 C3         -1.4891   -0.3010   -3.5947 C.ar      1 <0>         0.0000
      4 C4         -0.7861   -1.5566   -1.6540 C.ar      1 <0>         0.0000
      5 C5         -1.6506   -2.5916   -2.0105 C.ar      1 <0>         0.0000
      6 C6         -0.7053   -0.4113   -2.4461 C.ar      1 <0>         0.0000
      7 C7          0.9308   -5.2195   -0.8816 C.3       1 <0>         0.0000
      8 C8          0.1475   -5.2385   -2.1881 C.3       1 <0>         0.0000
      9 C9          0.5907   -3.9948   -0.0374 C.3       1 <0>         0.0000
     10 C10        -1.3540   -5.1284   -1.9382 C.3       1 <0>         0.0000
     11 C11        -0.9251   -3.8225    0.2030 C.3       1 <0>         0.0000
     12 C12        -1.7401   -3.8544   -1.1369 C.3       1 <0>         0.0000
     13 C13        -2.4255   -3.4217    2.8630 C.3       1 <0>         0.0000
     14 C14        -3.4059   -5.5587    2.3687 C.3       1 <0>         0.0000
     15 C15         0.1718    1.7401   -2.9537 C.3       1 <0>         0.0000
     16 C16        -1.4056   -4.8632    1.2339 C.3       1 <0>         0.0000
     17 N1         -2.6335   -4.4323    1.8058 N.3       1 <0>         0.0000
     18 O1         -3.1379   -3.9381   -0.8075 O.3       1 <0>         0.0000
     19 O2          0.1388    0.5985   -2.0987 O.3       1 <0>         0.0000
     20 H1         -2.9636   -1.2504   -4.8455 H         1 <0>         0.0000
     21 H2         -3.1112   -3.2823   -3.4445 H         1 <0>         0.0000
     22 H3         -1.4309    0.5885   -4.2158 H         1 <0>         0.0000
     23 H4         -0.1740   -1.6397   -0.7589 H         1 <0>         0.0000
     24 H5          0.7165   -6.1306   -0.3113 H         1 <0>         0.0000
     25 H6          2.0061   -5.2261   -1.0994 H         1 <0>         0.0000
     26 H7          0.4745   -4.4049   -2.8214 H         1 <0>         0.0000
     27 H8          0.3725   -6.1583   -2.7418 H         1 <0>         0.0000
     28 H9          1.1233   -4.0575    0.9253 H         1 <0>         0.0000
     29 H10         0.9862   -3.0979   -0.5405 H         1 <0>         0.0000
     30 H11        -1.8778   -5.1364   -2.9047 H         1 <0>         0.0000
     31 H12        -1.6793   -6.0244   -1.3919 H         1 <0>         0.0000
     32 H13        -1.0714   -2.8208    0.6643 H         1 <0>         0.0000
     33 H14        -1.8549   -2.5770    2.4683 H         1 <0>         0.0000
     34 H15        -1.8742   -3.8584    3.7001 H         1 <0>         0.0000
     35 H16        -3.3879   -3.0553    3.2303 H         1 <0>         0.0000
     36 H17        -3.5721   -6.3204    1.6025 H         1 <0>         0.0000
     37 H18        -4.3755   -5.2079    2.7323 H         1 <0>         0.0000
     38 H19        -2.8617   -6.0110    3.2022 H         1 <0>         0.0000
     39 H20         0.8854    2.4692   -2.5619 H         1 <0>         0.0000
     40 H21        -0.8254    2.1839   -3.0093 H         1 <0>         0.0000
     41 H22         0.4854    1.4273   -3.9525 H         1 <0>         0.0000
     42 H23        -0.6549   -4.9485    2.0050 H         1 <0>         0.0000
     43 H24        -1.5505   -5.8058    0.7289 H         1 <0>         0.0000
     44 H25        -3.3607   -3.1223   -0.3319 H         1 <0>         0.0000
@<TRIPOS>BOND
     1    1    2 ar
     2    1    3 ar
     3    2    5 ar
     4    3    6 ar
     5    4    5 ar
     6    4    6 ar
     7    5   12 1
     8    6   19 1
     9    7    8 1
    10    7    9 1
    11    8   10 1
    12    9   11 1
    13   10   12 1
    14   11   12 1
    15   11   16 1
    16   12   18 1
    17   13   17 1
    18   14   17 1
    19   15   19 1
    20   16   17 1
    21    1   20 1
    22    2   21 1
    23    3   22 1
    24    4   23 1
    25    7   24 1
    26    7   25 1
    27    8   26 1
    28    8   27 1
    29    9   28 1
    30    9   29 1
    31   10   30 1
    32   10   31 1
    33   11   32 1
    34   13   33 1
    35   13   34 1
    36   13   35 1
    37   14   36 1
    38   14   37 1
    39   14   38 1
    40   15   39 1
    41   15   40 1
    42   15   41 1
    43   16   42 1
    44   16   43 1
    45   18   44 1
@<TRIPOS>MOLECULE
*****
   44    45     0     0     0
SMALL
NO_CHARGES

@<TRIPOS>ATOM
      1 C1         -3.8198   -3.9205    0.2254 C.ar      1 <0>         0.0000
      2 C2         -3.0567   -4.1790   -0.9132 C.ar      1 <0>         0.0000
      3 C3         -3.1997   -3.8072    1.4698 C.ar      1 <0>         0.0000
      4 C4         -1.0533   -4.2113    0.4369 C.ar      1 <0>         0.0000
      5 C5         -1.6735   -4.3245   -0.8074 C.ar      1 <0>         0.0000
      6 C6         -1.8165   -3.9527    1.5755 C.ar      1 <0>         0.0000
      7 C7         -0.6331   -5.1075   -4.9969 C.3       1 <0>         0.0000
      8 C8         -0.5327   -6.2535   -3.9990 C.3       1 <0>         0.0000
      9 C9         -0.1576   -3.7911   -4.3912 C.3       1 <0>         0.0000
     10 C10        -1.2945   -5.9372   -2.7119 C.3       1 <0>         0.0000
     11 C11        -0.9146   -3.4433   -3.0935 C.3       1 <0>         0.0000
     12 C12        -0.8348   -4.6092   -2.0591 C.3       1 <0>         0.0000
     13 C13        -2.3923   -0.8391   -2.3863 C.3       1 <0>         0.0000
     14 C14        -0.6873   -0.5986   -0.7108 C.3       1 <0>         0.0000
     15 C15        -2.0514   -3.5757    3.9118 C.3       1 <0>         0.0000
     16 C16        -0.3649   -2.1187   -2.5434 C.3       1 <0>         0.0000
     17 N1         -1.3159   -1.5417   -1.6583 N.3       1 <0>         0.0000
     18 O1          0.5503   -4.7680   -1.7109 O.3       1 <0>         0.0000
     19 O2         -1.2113   -3.8415    2.7897 O.3       1 <0>         0.0000
     20 H1         -4.8966   -3.8068    0.1430 H         1 <0>         0.0000
     21 H2         -3.5488   -4.2660   -1.8783 H         1 <0>         0.0000
     22 H3         -3.7997   -3.6058    2.3528 H         1 <0>         0.0000
     23 H4          0.0249   -4.3245    0.5224 H         1 <0>         0.0000
     24 H5         -0.0364   -5.3407   -5.8859 H         1 <0>         0.0000
     25 H6         -1.6730   -5.0022   -5.3300 H         1 <0>         0.0000
     26 H7         -0.9403   -7.1663   -4.4484 H         1 <0>         0.0000
     27 H8          0.5204   -6.4583   -3.7731 H         1 <0>         0.0000
     28 H9          0.9213   -3.8466   -4.2002 H         1 <0>         0.0000
     29 H10        -0.3018   -2.9903   -5.1270 H         1 <0>         0.0000
     30 H11        -2.3688   -5.8952   -2.9371 H         1 <0>         0.0000
     31 H12        -1.1457   -6.7700   -2.0121 H         1 <0>         0.0000
     32 H13        -1.9703   -3.2805   -3.3566 H         1 <0>         0.0000
     33 H14        -2.8727   -1.5191   -3.0947 H         1 <0>         0.0000
     34 H15        -1.9828    0.0117   -2.9377 H         1 <0>         0.0000
     35 H16        -3.1460   -0.4720   -1.6846 H         1 <0>         0.0000
     36 H17         0.1140   -1.0978   -0.1597 H         1 <0>         0.0000
     37 H18        -1.4287   -0.2298    0.0032 H         1 <0>         0.0000
     38 H19        -0.2655    0.2539   -1.2499 H         1 <0>         0.0000
     39 H20        -1.4423   -3.5113    4.8168 H         1 <0>         0.0000
     40 H21        -2.7898   -4.3752    4.0128 H         1 <0>         0.0000
     41 H22        -2.5660   -2.6251    3.7533 H         1 <0>         0.0000
     42 H23        -0.1902   -1.4526   -3.3746 H         1 <0>         0.0000
     43 H24         0.5514   -2.3215   -2.0107 H         1 <0>         0.0000
     44 H25         0.5980   -5.5158   -1.0946 H         1 <0>         0.0000
@<TRIPOS>BOND
     1    1    2 ar
     2    1    3 ar
     3    2    5 ar
     4    3    6 ar
     5    4    5 ar
     6    4    6 ar
     7    5   12 1
     8    6   19 1
     9    7    8 1
    10    7    9 1
    11    8   10 1
    12    9   11 1
    13   10   12 1
    14   11   12 1
    15   11   16 1
    16   12   18 1
    17   13   17 1
    18   14   17 1
    19   15   19 1
    20   16   17 1
    21    1   20 1
    22    2   21 1
    23    3   22 1
    24    4   23 1
    25    7   24 1
    26    7   25 1
    27    8   26 1
    28    8   27 1
    29    9   28 1
    30    9   29 1
    31   10   30 1
    32   10   31 1
    33   11   32 1
    34   13   33 1
    35   13   34 1
    36   13   35 1
    37   14   36 1
    38   14   37 1
    39   14   38 1
    40   15   39 1
    41   15   40 1
    42   15   41 1
    43   16   42 1
    44   16   43 1
    45   18   44 1
@<TRIPOS>MOLECULE
*****
   44    45     0     0     0
SMALL
NO_CHARGES

@<TRIPOS>ATOM
      1 C1         -0.3873   -0.1926   -1.8105 C.ar      1 <0>         0.0000
      2 C2         -0.7443   -1.3764   -1.1651 C.ar      1 <0>         0.0000
      3 C3         -0.7893    0.0327   -3.1271 C.ar      1 <0>         0.0000
      4 C4         -1.9053   -2.1100   -3.1529 C.ar      1 <0>         0.0000
      5 C5         -1.5033   -2.3351   -1.8363 C.ar      1 <0>         0.0000
      6 C6         -1.5483   -0.9261   -3.7983 C.ar      1 <0>         0.0000
      7 C7          0.5239   -5.1733   -0.1993 C.3       1 <0>         0.0000
      8 C8          0.1638   -5.0675   -1.6757 C.3       1 <0>         0.0000
      9 C9         -0.0044   -3.9837    0.5971 C.3       1 <0>         0.0000
     10 C10        -1.3388   -4.8848   -1.8703 C.3       1 <0>         0.0000
     11 C11        -1.5155   -3.7375    0.3940 C.3       1 <0>         0.0000
     12 C12        -1.8964   -3.6408   -1.1246 C.3       1 <0>         0.0000
     13 C13        -2.3476   -5.9929    3.2476 C.3       1 <0>         0.0000
     14 C14        -2.6872   -3.6147    3.2100 C.3       1 <0>         0.0000
     15 C15        -1.5419    0.5259   -5.6818 C.3       1 <0>         0.0000
     16 C16        -2.3199   -4.8084    1.1575 C.3       1 <0>         0.0000
     17 N1         -2.0042   -4.7414    2.5418 N.3       1 <0>         0.0000
     18 O1         -3.3311   -3.6620   -1.2274 O.3       1 <0>         0.0000
     19 O2         -1.9411   -0.7059   -5.0829 O.3       1 <0>         0.0000
     20 H1          0.2032    0.5540   -1.2878 H         1 <0>         0.0000
     21 H2         -0.4261   -1.5432   -0.1394 H         1 <0>         0.0000
     22 H3         -0.5080    0.9568   -3.6243 H         1 <0>         0.0000
     23 H4         -2.4969   -2.8558   -3.6787 H         1 <0>         0.0000
     24 H5          0.1152   -6.1029    0.2131 H         1 <0>         0.0000
     25 H6          1.6142   -5.2299   -0.0916 H         1 <0>         0.0000
     26 H7          0.6958   -4.2180   -2.1209 H         1 <0>         0.0000
     27 H8          0.5076   -5.9640   -2.2062 H         1 <0>         0.0000
     28 H9          0.2154   -4.1355    1.6662 H         1 <0>         0.0000
     29 H10         0.5566   -3.0830    0.3009 H         1 <0>         0.0000
     30 H11        -1.5519   -4.8038   -2.9457 H         1 <0>         0.0000
     31 H12        -1.8457   -5.7914   -1.5122 H         1 <0>         0.0000
     32 H13        -1.7538   -2.7585    0.8656 H         1 <0>         0.0000
     33 H14        -1.8522   -6.8419    2.7694 H         1 <0>         0.0000
     34 H15        -3.4284   -6.1565    3.2228 H         1 <0>         0.0000
     35 H16        -2.0251   -5.9392    4.2909 H         1 <0>         0.0000
     36 H17        -2.4471   -2.6762    2.7036 H         1 <0>         0.0000
     37 H18        -2.3671   -3.5437    4.2531 H         1 <0>         0.0000
     38 H19        -3.7704   -3.7610    3.1850 H         1 <0>         0.0000
     39 H20        -1.9207    0.5738   -6.7056 H         1 <0>         0.0000
     40 H21        -0.4512    0.5954   -5.6819 H         1 <0>         0.0000
     41 H22        -1.9577    1.3539   -5.1027 H         1 <0>         0.0000
     42 H23        -2.0482   -5.7781    0.7686 H         1 <0>         0.0000
     43 H24        -3.3719   -4.6151    1.0146 H         1 <0>         0.0000
     44 H25        -3.6537   -2.8646   -0.7785 H         1 <0>         0.0000
@<TRIPOS>BOND
     1    1    2 ar
     2    1    3 ar
     3    2    5 ar
     4    3    6 ar
     5    4    5 ar
     6    4    6 ar
     7    5   12 1
     8    6   19 1
     9    7    8 1
    10    7    9 1
    11    8   10 1
    12    9   11 1
    13   10   12 1
    14   11   12 1
    15   11   16 1
    16   12   18 1
    17   13   17 1
    18   14   17 1
    19   15   19 1
    20   16   17 1
    21    1   20 1
    22    2   21 1
    23    3   22 1
    24    4   23 1
    25    7   24 1
    26    7   25 1
    27    8   26 1
    28    8   27 1
    29    9   28 1
    30    9   29 1
    31   10   30 1
    32   10   31 1
    33   11   32 1
    34   13   33 1
    35   13   34 1
    36   13   35 1
    37   14   36 1
    38   14   37 1
    39   14   38 1
    40   15   39 1
    41   15   40 1
    42   15   41 1
    43   16   42 1
    44   16   43 1
    45   18   44 1
@<TRIPOS>MOLECULE
*****
   44    45     0     0     0
SMALL
NO_CHARGES

@<TRIPOS>ATOM
      1 C1         -1.8525   -1.5271   -4.3103 C.ar      1 <0>         0.0000
      2 C2         -2.0732   -2.6398   -3.4987 C.ar      1 <0>         0.0000
      3 C3         -1.2283   -0.3949   -3.7869 C.ar      1 <0>         0.0000
      4 C4         -1.0457   -1.4880   -1.6401 C.ar      1 <0>         0.0000
      5 C5         -1.6699   -2.6203   -2.1636 C.ar      1 <0>         0.0000
      6 C6         -0.8249   -0.3753   -2.4518 C.ar      1 <0>         0.0000
      7 C7          0.6580   -4.9197   -0.1296 C.3       1 <0>         0.0000
      8 C8          0.3142   -5.0744   -1.6055 C.3       1 <0>         0.0000
      9 C9         -0.0252   -3.7013    0.4844 C.3       1 <0>         0.0000
     10 C10        -1.1958   -5.1080   -1.8245 C.3       1 <0>         0.0000
     11 C11        -1.5511   -3.6749    0.2478 C.3       1 <0>         0.0000
     12 C12        -1.9139   -3.8472   -1.2686 C.3       1 <0>         0.0000
     13 C13        -2.1534   -5.5774    3.4005 C.3       1 <0>         0.0000
     14 C14        -2.7792   -3.2899    3.0157 C.3       1 <0>         0.0000
     15 C15        -0.0202    1.8310   -2.8267 C.3       1 <0>         0.0000
     16 C16        -2.2328   -4.7144    1.1597 C.3       1 <0>         0.0000
     17 N1         -1.9523   -4.4089    2.5193 N.3       1 <0>         0.0000
     18 O1         -3.3332   -4.0593   -1.3670 O.3       1 <0>         0.0000
     19 O2         -0.2152    0.7295   -1.9412 O.3       1 <0>         0.0000
     20 H1         -2.1661   -1.5427   -5.3499 H         1 <0>         0.0000
     21 H2         -2.5607   -3.5173   -3.9153 H         1 <0>         0.0000
     22 H3         -1.0592    0.4686   -4.4242 H         1 <0>         0.0000
     23 H4         -0.7304   -1.4697   -0.5994 H         1 <0>         0.0000
     24 H5          0.3582   -5.8228    0.4144 H         1 <0>         0.0000
     25 H6          1.7451   -4.8255   -0.0149 H         1 <0>         0.0000
     26 H7          0.7467   -4.2396   -2.1702 H         1 <0>         0.0000
     27 H8          0.7740   -5.9892   -1.9993 H         1 <0>         0.0000
     28 H9          0.1924   -3.6681    1.5642 H         1 <0>         0.0000
     29 H10         0.4272   -2.7910    0.0596 H         1 <0>         0.0000
     30 H11        -1.3979   -5.2108   -2.9001 H         1 <0>         0.0000
     31 H12        -1.5949   -6.0085   -1.3376 H         1 <0>         0.0000
     32 H13        -1.9152   -2.6747    0.5712 H         1 <0>         0.0000
     33 H14        -1.5499   -6.4193    3.0515 H         1 <0>         0.0000
     34 H15        -3.2056   -5.8745    3.4000 H         1 <0>         0.0000
     35 H16        -1.8585   -5.3336    4.4247 H         1 <0>         0.0000
     36 H17        -2.6461   -2.4124    2.3775 H         1 <0>         0.0000
     37 H18        -2.4888   -3.0294    4.0371 H         1 <0>         0.0000
     38 H19        -3.8359   -3.5703    3.0125 H         1 <0>         0.0000
     39 H20         0.4758    2.6453   -2.2928 H         1 <0>         0.0000
     40 H21        -0.9870    2.1676   -3.2094 H         1 <0>         0.0000
     41 H22         0.6078    1.5095   -3.6610 H         1 <0>         0.0000
     42 H23        -1.8382   -5.6894    0.9167 H         1 <0>         0.0000
     43 H24        -3.2977   -4.6747    0.9902 H         1 <0>         0.0000
     44 H25        -3.7584   -3.2510   -1.0395 H         1 <0>         0.0000
@<TRIPOS>BOND
     1    1    2 ar
     2    1    3 ar
     3    2    5 ar
     4    3    6 ar
     5    4    5 ar
     6    4    6 ar
     7    5   12 1
     8    6   19 1
     9    7    8 1
    10    7    9 1
    11    8   10 1
    12    9   11 1
    13   10   12 1
    14   11   12 1
    15   11   16 1
    16   12   18 1
    17   13   17 1
    18   14   17 1
    19   15   19 1
    20   16   17 1
    21    1   20 1
    22    2   21 1
    23    3   22 1
    24    4   23 1
    25    7   24 1
    26    7   25 1
    27    8   26 1
    28    8   27 1
    29    9   28 1
    30    9   29 1
    31   10   30 1
    32   10   31 1
    33   11   32 1
    34   13   33 1
    35   13   34 1
    36   13   35 1
    37   14   36 1
    38   14   37 1
    39   14   38 1
    40   15   39 1
    41   15   40 1
    42   15   41 1
    43   16   42 1
    44   16   43 1
    45   18   44 1
@<TRIPOS>MOLECULE
*****
   44    45     0     0     0
SMALL
NO_CHARGES

@<TRIPOS>ATOM
      1 C1         -2.9917   -3.0310   -3.4349 C.ar      1 <0>         0.0000
      2 C2         -2.7156   -3.5264   -2.1606 C.ar      1 <0>         0.0000
      3 C3         -2.3349   -1.8906   -3.8973 C.ar      1 <0>         0.0000
      4 C4         -1.1260   -1.7410   -1.8109 C.ar      1 <0>         0.0000
      5 C5         -1.7828   -2.8814   -1.3486 C.ar      1 <0>         0.0000
      6 C6         -1.4020   -1.2456   -3.0853 C.ar      1 <0>         0.0000
      7 C7         -1.9572   -5.4134    2.2299 C.3       1 <0>         0.0000
      8 C8         -2.5497   -4.0124    2.3040 C.3       1 <0>         0.0000
      9 C9         -0.6664   -5.4358    1.4181 C.3       1 <0>         0.0000
     10 C10        -2.7715   -3.4289    0.9085 C.3       1 <0>         0.0000
     11 C11        -0.8625   -4.8583    0.0017 C.3       1 <0>         0.0000
     12 C12        -1.4798   -3.4258    0.0525 C.3       1 <0>         0.0000
     13 C13        -0.1403   -6.1426   -2.6991 C.3       1 <0>         0.0000
     14 C14         1.4443   -4.3445   -2.8682 C.3       1 <0>         0.0000
     15 C15         0.1807    0.4765   -2.6548 C.3       1 <0>         0.0000
     16 C16         0.4830   -4.9024   -0.7380 C.3       1 <0>         0.0000
     17 N1          0.2561   -4.8341   -2.1396 N.3       1 <0>         0.0000
     18 O1         -0.5304   -2.5826    0.7252 O.3       1 <0>         0.0000
     19 O2         -0.7607   -0.1331   -3.5368 O.3       1 <0>         0.0000
     20 H1         -3.7176   -3.5335   -4.0673 H         1 <0>         0.0000
     21 H2         -3.2327   -4.4153   -1.8088 H         1 <0>         0.0000
     22 H3         -2.5543   -1.5098   -4.8908 H         1 <0>         0.0000
     23 H4         -0.3984   -1.2358   -1.1799 H         1 <0>         0.0000
     24 H5         -1.7620   -5.7840    3.2426 H         1 <0>         0.0000
     25 H6         -2.6865   -6.0957    1.7762 H         1 <0>         0.0000
     26 H7         -3.5052   -4.0474    2.8400 H         1 <0>         0.0000
     27 H8         -1.8879   -3.3593    2.8849 H         1 <0>         0.0000
     28 H9          0.1107   -4.8766    1.9538 H         1 <0>         0.0000
     29 H10        -0.3108   -6.4711    1.3472 H         1 <0>         0.0000
     30 H11        -3.5576   -4.0065    0.4036 H         1 <0>         0.0000
     31 H12        -3.1487   -2.4041    1.0215 H         1 <0>         0.0000
     32 H13        -1.5579   -5.5203   -0.5351 H         1 <0>         0.0000
     33 H14        -1.0195   -6.5249   -2.1741 H         1 <0>         0.0000
     34 H15         0.6753   -6.8627   -2.5905 H         1 <0>         0.0000
     35 H16        -0.3804   -6.0425   -3.7610 H         1 <0>         0.0000
     36 H17         1.7560   -3.3753   -2.4702 H         1 <0>         0.0000
     37 H18         1.2156   -4.2313   -3.9314 H         1 <0>         0.0000
     38 H19         2.2713   -5.0515   -2.7609 H         1 <0>         0.0000
     39 H20         0.6193    1.3529   -3.1381 H         1 <0>         0.0000
     40 H21         0.9633   -0.2433   -2.4019 H         1 <0>         0.0000
     41 H22        -0.3354    0.7861   -1.7430 H         1 <0>         0.0000
     42 H23         0.9742   -5.8321   -0.4936 H         1 <0>         0.0000
     43 H24         1.0759   -4.0573   -0.4240 H         1 <0>         0.0000
     44 H25        -0.9336   -1.7021    0.7844 H         1 <0>         0.0000
@<TRIPOS>BOND
     1    1    2 ar
     2    1    3 ar
     3    2    5 ar
     4    3    6 ar
     5    4    5 ar
     6    4    6 ar
     7    5   12 1
     8    6   19 1
     9    7    8 1
    10    7    9 1
    11    8   10 1
    12    9   11 1
    13   10   12 1
    14   11   12 1
    15   11   16 1
    16   12   18 1
    17   13   17 1
    18   14   17 1
    19   15   19 1
    20   16   17 1
    21    1   20 1
    22    2   21 1
    23    3   22 1
    24    4   23 1
    25    7   24 1
    26    7   25 1
    27    8   26 1
    28    8   27 1
    29    9   28 1
    30    9   29 1
    31   10   30 1
    32   10   31 1
    33   11   32 1
    34   13   33 1
    35   13   34 1
    36   13   35 1
    37   14   36 1
    38   14   37 1
    39   14   38 1
    40   15   39 1
    41   15   40 1
    42   15   41 1
    43   16   42 1
    44   16   43 1
    45   18   44 1
@<TRIPOS>MOLECULE
*****
   44    45     0     0     0
SMALL
NO_CHARGES

@<TRIPOS>ATOM
      1 C1         -0.3547   -0.1538   -1.7502 C.ar      1 <0>         0.0000
      2 C2         -0.7217   -1.3494   -1.1326 C.ar      1 <0>         0.0000
      3 C3         -0.7433    0.0996   -3.0656 C.ar      1 <0>         0.0000
      4 C4         -1.8658   -2.0383   -3.1459 C.ar      1 <0>         0.0000
      5 C5         -1.4772   -2.2917   -1.8304 C.ar      1 <0>         0.0000
      6 C6         -1.4988   -0.8426   -3.7635 C.ar      1 <0>         0.0000
      7 C7          0.5251   -5.1695   -0.2327 C.3       1 <0>         0.0000
      8 C8          0.1796   -5.0324   -1.7100 C.3       1 <0>         0.0000
      9 C9         -0.0070   -3.9947    0.5828 C.3       1 <0>         0.0000
     10 C10        -1.3205   -4.8406   -1.9151 C.3       1 <0>         0.0000
     11 C11        -1.5153   -3.7393    0.3704 C.3       1 <0>         0.0000
     12 C12        -1.8813   -3.6103   -1.1495 C.3       1 <0>         0.0000
     13 C13        -2.3820   -6.0498    3.1690 C.3       1 <0>         0.0000
     14 C14        -2.7137   -3.6703    3.1770 C.3       1 <0>         0.0000
     15 C15        -2.6496   -1.6012   -5.7016 C.3       1 <0>         0.0000
     16 C16        -2.3304   -4.8229    1.1040 C.3       1 <0>         0.0000
     17 N1         -2.0279   -4.7853    2.4924 N.3       1 <0>         0.0000
     18 O1         -3.3150   -3.6245   -1.2664 O.3       1 <0>         0.0000
     19 O2         -1.8786   -0.5949   -5.0470 O.3       1 <0>         0.0000
     20 H1          0.2331    0.5799   -1.2066 H         1 <0>         0.0000
     21 H2         -0.4139   -1.5383   -0.1075 H         1 <0>         0.0000
     22 H3         -0.4543    1.0328   -3.5410 H         1 <0>         0.0000
     23 H4         -2.4546   -2.7711   -3.6926 H         1 <0>         0.0000
     24 H5          0.1095   -6.1060    0.1566 H         1 <0>         0.0000
     25 H6          1.6142   -5.2320   -0.1158 H         1 <0>         0.0000
     26 H7          0.7185   -4.1757   -2.1325 H         1 <0>         0.0000
     27 H8          0.5257   -5.9189   -2.2555 H         1 <0>         0.0000
     28 H9          0.2020   -4.1691    1.6506 H         1 <0>         0.0000
     29 H10         0.5596   -3.0900    0.3105 H         1 <0>         0.0000
     30 H11        -1.5229   -4.7369   -2.9906 H         1 <0>         0.0000
     31 H12        -1.8337   -5.7527   -1.5805 H         1 <0>         0.0000
     32 H13        -1.7550   -2.7694    0.8597 H         1 <0>         0.0000
     33 H14        -1.8847   -6.8906    2.6783 H         1 <0>         0.0000
     34 H15        -3.4630   -6.2092    3.1306 H         1 <0>         0.0000
     35 H16        -2.0694   -6.0186    4.2163 H         1 <0>         0.0000
     36 H17        -2.4658   -2.7224    2.6923 H         1 <0>         0.0000
     37 H18        -2.4034   -3.6217    4.2243 H         1 <0>         0.0000
     38 H19        -3.7971   -3.8124    3.1387 H         1 <0>         0.0000
     39 H20        -2.8852   -1.2770   -6.7182 H         1 <0>         0.0000
     40 H21        -3.5712   -1.7774   -5.1411 H         1 <0>         0.0000
     41 H22        -2.0677   -2.5250   -5.7417 H         1 <0>         0.0000
     42 H23        -2.0581   -5.7853    0.6980 H         1 <0>         0.0000
     43 H24        -3.3803   -4.6231    0.9551 H         1 <0>         0.0000
     44 H25        -3.6394   -2.8354   -0.8043 H         1 <0>         0.0000
@<TRIPOS>BOND
     1    1    2 ar
     2    1    3 ar
     3    2    5 ar
     4    3    6 ar
     5    4    5 ar
     6    4    6 ar
     7    5   12 1
     8    6   19 1
     9    7    8 1
    10    7    9 1
    11    8   10 1
    12    9   11 1
    13   10   12 1
    14   11   12 1
    15   11   16 1
    16   12   18 1
    17   13   17 1
    18   14   17 1
    19   15   19 1
    20   16   17 1
    21    1   20 1
    22    2   21 1
    23    3   22 1
    24    4   23 1
    25    7   24 1
    26    7   25 1
    27    8   26 1
    28    8   27 1
    29    9   28 1
    30    9   29 1
    31   10   30 1
    32   10   31 1
    33   11   32 1
    34   13   33 1
    35   13   34 1
    36   13   35 1
    37   14   36 1
    38   14   37 1
    39   14   38 1
    40   15   39 1
    41   15   40 1
    42   15   41 1
    43   16   42 1
    44   16   43 1
    45   18   44 1
@<TRIPOS>MOLECULE
*****
   44    45     0     0     0
SMALL
NO_CHARGES

@<TRIPOS>ATOM
      1 C1         -1.9931   -4.7573   -3.8571 C.ar      1 <0>         0.0000
      2 C2         -2.4057   -4.3680   -2.5829 C.ar      1 <0>         0.0000
      3 C3         -0.6632   -5.1136   -4.0811 C.ar      1 <0>         0.0000
      4 C4         -0.1585   -4.6910   -1.7565 C.ar      1 <0>         0.0000
      5 C5         -1.4884   -4.3348   -1.5326 C.ar      1 <0>         0.0000
      6 C6          0.2541   -5.0804   -3.0308 C.ar      1 <0>         0.0000
      7 C7         -1.3545   -3.4092    2.7537 C.3       1 <0>         0.0000
      8 C8         -2.0775   -4.6732    2.3076 C.3       1 <0>         0.0000
      9 C9         -1.6039   -2.2504    1.7943 C.3       1 <0>         0.0000
     10 C10        -1.6957   -5.0557    0.8776 C.3       1 <0>         0.0000
     11 C11        -1.2209   -2.6064    0.3435 C.3       1 <0>         0.0000
     12 C12        -1.9421   -3.9062   -0.1319 C.3       1 <0>         0.0000
     13 C13         0.6343   -1.0713   -1.5715 C.3       1 <0>         0.0000
     14 C14        -1.3660   -0.7149   -2.8537 C.3       1 <0>         0.0000
     15 C15         2.4362   -5.3721   -2.1312 C.3       1 <0>         0.0000
     16 C16        -1.5182   -1.3964   -0.5548 C.3       1 <0>         0.0000
     17 N1         -0.7666   -1.5020   -1.7567 N.3       1 <0>         0.0000
     18 O1         -3.3526   -3.6318   -0.1222 O.3       1 <0>         0.0000
     19 O2          1.5518   -5.4286   -3.2493 O.3       1 <0>         0.0000
     20 H1         -2.7074   -4.7836   -4.6746 H         1 <0>         0.0000
     21 H2         -3.4438   -4.0917   -2.4181 H         1 <0>         0.0000
     22 H3         -0.3481   -5.4159   -5.0759 H         1 <0>         0.0000
     23 H4          0.5590   -4.6658   -0.9396 H         1 <0>         0.0000
     24 H5         -1.6863   -3.1318    3.7606 H         1 <0>         0.0000
     25 H6         -0.2772   -3.6066    2.8166 H         1 <0>         0.0000
     26 H7         -1.8246   -5.4972    2.9847 H         1 <0>         0.0000
     27 H8         -3.1614   -4.5271    2.3822 H         1 <0>         0.0000
     28 H9         -2.6585   -1.9531    1.8484 H         1 <0>         0.0000
     29 H10        -1.0195   -1.3835    2.1267 H         1 <0>         0.0000
     30 H11        -0.6385   -5.3531    0.8605 H         1 <0>         0.0000
     31 H12        -2.2821   -5.9385    0.5909 H         1 <0>         0.0000
     32 H13        -0.1348   -2.7795    0.3181 H         1 <0>         0.0000
     33 H14         1.0989   -1.6416   -0.7629 H         1 <0>         0.0000
     34 H15         0.6727   -0.0081   -1.3194 H         1 <0>         0.0000
     35 H16         1.2044   -1.2346   -2.4900 H         1 <0>         0.0000
     36 H17        -2.4050   -1.0173   -3.0089 H         1 <0>         0.0000
     37 H18        -0.8104   -0.8756   -3.7816 H         1 <0>         0.0000
     38 H19        -1.3422    0.3509   -2.6111 H         1 <0>         0.0000
     39 H20         3.4389   -5.6744   -2.4432 H         1 <0>         0.0000
     40 H21         2.0722   -6.0368   -1.3436 H         1 <0>         0.0000
     41 H22         2.4678   -4.3471   -1.7544 H         1 <0>         0.0000
     42 H23        -1.2318   -0.5012   -0.0238 H         1 <0>         0.0000
     43 H24        -2.5725   -1.3894   -0.7845 H         1 <0>         0.0000
     44 H25        -3.7973   -4.4530   -0.3852 H         1 <0>         0.0000
@<TRIPOS>BOND
     1    1    2 ar
     2    1    3 ar
     3    2    5 ar
     4    3    6 ar
     5    4    5 ar
     6    4    6 ar
     7    5   12 1
     8    6   19 1
     9    7    8 1
    10    7    9 1
    11    8   10 1
    12    9   11 1
    13   10   12 1
    14   11   12 1
    15   11   16 1
    16   12   18 1
    17   13   17 1
    18   14   17 1
    19   15   19 1
    20   16   17 1
    21    1   20 1
    22    2   21 1
    23    3   22 1
    24    4   23 1
    25    7   24 1
    26    7   25 1
    27    8   26 1
    28    8   27 1
    29    9   28 1
    30    9   29 1
    31   10   30 1
    32   10   31 1
    33   11   32 1
    34   13   33 1
    35   13   34 1
    36   13   35 1
    37   14   36 1
    38   14   37 1
    39   14   38 1
    40   15   39 1
    41   15   40 1
    42   15   41 1
    43   16   42 1
    44   16   43 1
    45   18   44 1
@<TRIPOS>MOLECULE
*****
   44    45     0     0     0
SMALL
NO_CHARGES

@<TRIPOS>ATOM
      1 C1         -1.9696   -4.6818   -3.8123 C.ar      1 <0>         0.0000
      2 C2         -2.3727   -4.2741   -2.5408 C.ar      1 <0>         0.0000
      3 C3         -0.6531   -5.0883   -4.0297 C.ar      1 <0>         0.0000
      4 C4         -0.1428   -4.6791   -1.7039 C.ar      1 <0>         0.0000
      5 C5         -1.4593   -4.2727   -1.4866 C.ar      1 <0>         0.0000
      6 C6          0.2603   -5.0869   -2.9755 C.ar      1 <0>         0.0000
      7 C7         -1.3089   -3.3421    2.7980 C.3       1 <0>         0.0000
      8 C8         -2.0770   -4.5791    2.3518 C.3       1 <0>         0.0000
      9 C9         -1.5106   -2.1771    1.8348 C.3       1 <0>         0.0000
     10 C10        -1.7038   -4.9793    0.9244 C.3       1 <0>         0.0000
     11 C11        -1.1351   -2.5509    0.3865 C.3       1 <0>         0.0000
     12 C12        -1.9025   -3.8239   -0.0890 C.3       1 <0>         0.0000
     13 C13         0.7845   -1.0914   -1.5240 C.3       1 <0>         0.0000
     14 C14        -1.1955   -0.6633   -2.8157 C.3       1 <0>         0.0000
     15 C15         1.8890   -5.8891   -4.5116 C.3       1 <0>         0.0000
     16 C16        -1.3829   -1.3328   -0.5159 C.3       1 <0>         0.0000
     17 N1         -0.6308   -1.4696   -1.7143 N.3       1 <0>         0.0000
     18 O1         -3.3017   -3.4967   -0.0861 O.3       1 <0>         0.0000
     19 O2          1.5449   -5.4842   -3.1875 O.3       1 <0>         0.0000
     20 H1         -2.6809   -4.6833   -4.6329 H         1 <0>         0.0000
     21 H2         -3.4004   -3.9587   -2.3812 H         1 <0>         0.0000
     22 H3         -0.3453   -5.4048   -5.0224 H         1 <0>         0.0000
     23 H4          0.5716   -4.6788   -0.8840 H         1 <0>         0.0000
     24 H5         -1.6344   -3.0498    3.8028 H         1 <0>         0.0000
     25 H6         -0.2401   -3.5795    2.8661 H         1 <0>         0.0000
     26 H7         -1.8581   -5.4104    3.0319 H         1 <0>         0.0000
     27 H8         -3.1550   -4.3923    2.4213 H         1 <0>         0.0000
     28 H9         -2.5535   -1.8403    1.8836 H         1 <0>         0.0000
     29 H10        -0.8955   -1.3319    2.1677 H         1 <0>         0.0000
     30 H11        -0.6584   -5.3162    0.9125 H         1 <0>         0.0000
     31 H12        -2.3216   -5.8402    0.6371 H         1 <0>         0.0000
     32 H13        -0.0562   -2.7647    0.3662 H         1 <0>         0.0000
     33 H14         1.2240   -1.6766   -0.7121 H         1 <0>         0.0000
     34 H15         0.8617   -0.0297   -1.2743 H         1 <0>         0.0000
     35 H16         1.3521   -1.2782   -2.4396 H         1 <0>         0.0000
     36 H17        -2.2444   -0.9269   -2.9747 H         1 <0>         0.0000
     37 H18        -0.6424   -0.8471   -3.7408 H         1 <0>         0.0000
     38 H19        -1.1327    0.4014   -2.5755 H         1 <0>         0.0000
     39 H20         2.9416   -6.1809   -4.5422 H         1 <0>         0.0000
     40 H21         1.7085   -5.0635   -5.2046 H         1 <0>         0.0000
     41 H22         1.2683   -6.7425   -4.7950 H         1 <0>         0.0000
     42 H23        -1.0653   -0.4477    0.0142 H         1 <0>         0.0000
     43 H24        -2.4352   -1.2869   -0.7502 H         1 <0>         0.0000
     44 H25        -3.7759   -4.3013   -0.3491 H         1 <0>         0.0000
@<TRIPOS>BOND
     1    1    2 ar
     2    1    3 ar
     3    2    5 ar
     4    3    6 ar
     5    4    5 ar
     6    4    6 ar
     7    5   12 1
     8    6   19 1
     9    7    8 1
    10    7    9 1
    11    8   10 1
    12    9   11 1
    13   10   12 1
    14   11   12 1
    15   11   16 1
    16   12   18 1
    17   13   17 1
    18   14   17 1
    19   15   19 1
    20   16   17 1
    21    1   20 1
    22    2   21 1
    23    3   22 1
    24    4   23 1
    25    7   24 1
    26    7   25 1
    27    8   26 1
    28    8   27 1
    29    9   28 1
    30    9   29 1
    31   10   30 1
    32   10   31 1
    33   11   32 1
    34   13   33 1
    35   13   34 1
    36   13   35 1
    37   14   36 1
    38   14   37 1
    39   14   38 1
    40   15   39 1
    41   15   40 1
    42   15   41 1
    43   16   42 1
    44   16   43 1
    45   18   44 1
@<TRIPOS>MOLECULE
*****
   44    45     0     0     0
SMALL
NO_CHARGES

@<TRIPOS>ATOM
      1 C1         -3.9555   -4.2481    0.7426 C.ar      1 <0>         0.0000
      2 C2         -3.1798   -4.3288   -0.4138 C.ar      1 <0>         0.0000
      3 C3         -3.3415   -4.0822    1.9841 C.ar      1 <0>         0.0000
      4 C4         -1.1761   -4.0780    0.9127 C.ar      1 <0>         0.0000
      5 C5         -1.7902   -4.2439   -0.3288 C.ar      1 <0>         0.0000
      6 C6         -1.9519   -3.9972    2.0691 C.ar      1 <0>         0.0000
      7 C7         -0.7065   -4.6722   -4.5584 C.3       1 <0>         0.0000
      8 C8         -0.3982   -5.8241   -3.6111 C.3       1 <0>         0.0000
      9 C9         -0.4476   -3.3200   -3.9024 C.3       1 <0>         0.0000
     10 C10        -1.1797   -5.6923   -2.3039 C.3       1 <0>         0.0000
     11 C11        -1.2295   -3.1567   -2.5832 C.3       1 <0>         0.0000
     12 C12        -0.9376   -4.3332   -1.6002 C.3       1 <0>         0.0000
     13 C13        -0.5749    0.5112   -2.6229 C.3       1 <0>         0.0000
     14 C14        -2.7271   -0.5199   -2.9006 C.3       1 <0>         0.0000
     15 C15        -2.2059   -3.7592    4.4217 C.3       1 <0>         0.0000
     16 C16        -0.8999   -1.7817   -1.9831 C.3       1 <0>         0.0000
     17 N1         -1.2699   -0.7622   -2.9019 N.3       1 <0>         0.0000
     18 O1          0.4604   -4.2707   -1.2735 O.3       1 <0>         0.0000
     19 O2         -1.3528   -3.8348    3.2806 O.3       1 <0>         0.0000
     20 H1         -5.0374   -4.3138    0.6763 H         1 <0>         0.0000
     21 H2         -3.6671   -4.4585   -1.3766 H         1 <0>         0.0000
     22 H3         -3.9513   -4.0200    2.8811 H         1 <0>         0.0000
     23 H4         -0.0929   -4.0118    0.9820 H         1 <0>         0.0000
     24 H5         -0.0947   -4.7660   -5.4627 H         1 <0>         0.0000
     25 H6         -1.7550   -4.7300   -4.8758 H         1 <0>         0.0000
     26 H7         -0.6550   -6.7737   -4.0946 H         1 <0>         0.0000
     27 H8          0.6781   -5.8579   -3.4052 H         1 <0>         0.0000
     28 H9          0.6285   -3.2011   -3.7252 H         1 <0>         0.0000
     29 H10        -0.7367   -2.5260   -4.6019 H         1 <0>         0.0000
     30 H11        -2.2495   -5.8224   -2.5158 H         1 <0>         0.0000
     31 H12        -0.8813   -6.5156   -1.6417 H         1 <0>         0.0000
     32 H13        -2.3020   -3.1632   -2.8281 H         1 <0>         0.0000
     33 H14         0.5071    0.3556   -2.6190 H         1 <0>         0.0000
     34 H15        -0.8779    0.9013   -1.6475 H         1 <0>         0.0000
     35 H16        -0.8212    1.2518   -3.3885 H         1 <0>         0.0000
     36 H17        -3.2629   -1.4505   -3.1054 H         1 <0>         0.0000
     37 H18        -2.9891    0.2132   -3.6683 H         1 <0>         0.0000
     38 H19        -3.0458   -0.1373   -1.9273 H         1 <0>         0.0000
     39 H20        -1.6005   -3.6297    5.3222 H         1 <0>         0.0000
     40 H21        -2.7980   -4.6747    4.4964 H         1 <0>         0.0000
     41 H22        -2.8751   -2.9029    4.3091 H         1 <0>         0.0000
     42 H23         0.1628   -1.7378   -1.7991 H         1 <0>         0.0000
     43 H24        -1.4566   -1.6643   -1.0661 H         1 <0>         0.0000
     44 H25         0.6434   -5.0240   -0.6900 H         1 <0>         0.0000
@<TRIPOS>BOND
     1    1    2 ar
     2    1    3 ar
     3    2    5 ar
     4    3    6 ar
     5    4    5 ar
     6    4    6 ar
     7    5   12 1
     8    6   19 1
     9    7    8 1
    10    7    9 1
    11    8   10 1
    12    9   11 1
    13   10   12 1
    14   11   12 1
    15   11   16 1
    16   12   18 1
    17   13   17 1
    18   14   17 1
    19   15   19 1
    20   16   17 1
    21    1   20 1
    22    2   21 1
    23    3   22 1
    24    4   23 1
    25    7   24 1
    26    7   25 1
    27    8   26 1
    28    8   27 1
    29    9   28 1
    30    9   29 1
    31   10   30 1
    32   10   31 1
    33   11   32 1
    34   13   33 1
    35   13   34 1
    36   13   35 1
    37   14   36 1
    38   14   37 1
    39   14   38 1
    40   15   39 1
    41   15   40 1
    42   15   41 1
    43   16   42 1
    44   16   43 1
    45   18   44 1
@<TRIPOS>MOLECULE
*****
   44    45     0     0     0
SMALL
NO_CHARGES

@<TRIPOS>ATOM
      1 C1         -4.0584   -4.1874    0.7083 C.ar      1 <0>         0.0000
      2 C2         -3.2430   -4.3047   -0.4173 C.ar      1 <0>         0.0000
      3 C3         -3.4872   -3.9967    1.9665 C.ar      1 <0>         0.0000
      4 C4         -1.2852   -4.0408    0.9735 C.ar      1 <0>         0.0000
      5 C5         -1.8564   -4.2314   -0.2847 C.ar      1 <0>         0.0000
      6 C6         -2.1006   -3.9234    2.0991 C.ar      1 <0>         0.0000
      7 C7         -0.6278   -4.7760   -4.4609 C.3       1 <0>         0.0000
      8 C8         -0.3658   -5.9070   -3.4752 C.3       1 <0>         0.0000
      9 C9         -0.3778   -3.4105   -3.8295 C.3       1 <0>         0.0000
     10 C10        -1.1918   -5.7348   -2.2005 C.3       1 <0>         0.0000
     11 C11        -1.2042   -3.2066   -2.5436 C.3       1 <0>         0.0000
     12 C12        -0.9602   -4.3610   -1.5221 C.3       1 <0>         0.0000
     13 C13        -0.5089    0.4525   -2.6501 C.3       1 <0>         0.0000
     14 C14        -2.6610   -0.5638   -2.9793 C.3       1 <0>         0.0000
     15 C15        -0.1195   -3.6713    3.3904 C.3       1 <0>         0.0000
     16 C16        -0.8813   -1.8203   -1.9661 C.3       1 <0>         0.0000
     17 N1         -1.2073   -0.8205   -2.9224 N.3       1 <0>         0.0000
     18 O1          0.4259   -4.3043   -1.1473 O.3       1 <0>         0.0000
     19 O2         -1.5433   -3.7368    3.3269 O.3       1 <0>         0.0000
     20 H1         -5.1379   -4.2439    0.6049 H         1 <0>         0.0000
     21 H2         -3.6971   -4.4535   -1.3934 H         1 <0>         0.0000
     22 H3         -4.1278   -3.9061    2.8393 H         1 <0>         0.0000
     23 H4         -0.2044   -3.9836    1.0799 H         1 <0>         0.0000
     24 H5          0.0148   -4.8985   -5.3402 H         1 <0>         0.0000
     25 H6         -1.6648   -4.8312   -4.8142 H         1 <0>         0.0000
     26 H7         -0.6155   -6.8657   -3.9441 H         1 <0>         0.0000
     27 H8          0.7020   -5.9463   -3.2301 H         1 <0>         0.0000
     28 H9          0.6926   -3.2979   -3.6169 H         1 <0>         0.0000
     29 H10        -0.6332   -2.6314   -4.5583 H         1 <0>         0.0000
     30 H11        -2.2548   -5.8595   -2.4473 H         1 <0>         0.0000
     31 H12        -0.9261   -6.5442   -1.5080 H         1 <0>         0.0000
     32 H13        -2.2673   -3.2085   -2.8265 H         1 <0>         0.0000
     33 H14         0.5705    0.2864   -2.6036 H         1 <0>         0.0000
     34 H15        -0.8422    0.8699   -1.6960 H         1 <0>         0.0000
     35 H16        -0.7198    1.1762   -3.4420 H         1 <0>         0.0000
     36 H17        -3.1991   -1.4938   -3.1802 H         1 <0>         0.0000
     37 H18        -2.8875    0.1526   -3.7737 H         1 <0>         0.0000
     38 H19        -3.0099   -0.1538   -2.0277 H         1 <0>         0.0000
     39 H20         0.1932   -3.5200    4.4264 H         1 <0>         0.0000
     40 H21         0.2364   -2.8470    2.7671 H         1 <0>         0.0000
     41 H22         0.2964   -4.6113    3.0201 H         1 <0>         0.0000
     42 H23         0.1747   -1.7824   -1.7453 H         1 <0>         0.0000
     43 H24        -1.4689   -1.6746   -1.0729 H         1 <0>         0.0000
     44 H25         0.5799   -5.0446   -0.5392 H         1 <0>         0.0000
@<TRIPOS>BOND
     1    1    2 ar
     2    1    3 ar
     3    2    5 ar
     4    3    6 ar
     5    4    5 ar
     6    4    6 ar
     7    5   12 1
     8    6   19 1
     9    7    8 1
    10    7    9 1
    11    8   10 1
    12    9   11 1
    13   10   12 1
    14   11   12 1
    15   11   16 1
    16   12   18 1
    17   13   17 1
    18   14   17 1
    19   15   19 1
    20   16   17 1
    21    1   20 1
    22    2   21 1
    23    3   22 1
    24    4   23 1
    25    7   24 1
    26    7   25 1
    27    8   26 1
    28    8   27 1
    29    9   28 1
    30    9   29 1
    31   10   30 1
    32   10   31 1
    33   11   32 1
    34   13   33 1
    35   13   34 1
    36   13   35 1
    37   14   36 1
    38   14   37 1
    39   14   38 1
    40   15   39 1
    41   15   40 1
    42   15   41 1
    43   16   42 1
    44   16   43 1
    45   18   44 1
@<TRIPOS>MOLECULE
*****
   44    45     0     0     0
SMALL
NO_CHARGES

@<TRIPOS>ATOM
      1 C1         -3.9098   -4.8928    1.1837 C.ar      1 <0>         0.0000
      2 C2         -3.2158   -4.8673   -0.0259 C.ar      1 <0>         0.0000
      3 C3         -3.3410   -4.3298    2.3262 C.ar      1 <0>         0.0000
      4 C4         -1.3840   -3.7160    1.0493 C.ar      1 <0>         0.0000
      5 C5         -1.9528   -4.2790   -0.0931 C.ar      1 <0>         0.0000
      6 C6         -2.0781   -3.7414    2.2590 C.ar      1 <0>         0.0000
      7 C7         -1.1686   -4.2012   -4.4089 C.3       1 <0>         0.0000
      8 C8         -0.8898   -5.4888   -3.6449 C.3       1 <0>         0.0000
      9 C9         -0.7686   -2.9706   -3.6019 C.3       1 <0>         0.0000
     10 C10        -1.5766   -5.4837   -2.2792 C.3       1 <0>         0.0000
     11 C11        -1.4527   -2.9360   -2.2203 C.3       1 <0>         0.0000
     12 C12        -1.1898   -4.2516   -1.4229 C.3       1 <0>         0.0000
     13 C13        -0.0318    0.4902   -1.8659 C.3       1 <0>         0.0000
     14 C14        -2.2298   -0.0251   -2.6881 C.3       1 <0>         0.0000
     15 C15        -0.2294   -2.6068    3.2341 C.3       1 <0>         0.0000
     16 C16        -0.9840   -1.6799   -1.4706 C.3       1 <0>         0.0000
     17 N1         -0.9001   -0.5894   -2.3785 N.3       1 <0>         0.0000
     18 O1          0.2265   -4.3268   -1.1916 O.3       1 <0>         0.0000
     19 O2         -1.5233   -3.1915    3.3737 O.3       1 <0>         0.0000
     20 H1         -4.8932   -5.3504    1.2358 H         1 <0>         0.0000
     21 H2         -3.6668   -5.3089   -0.9106 H         1 <0>         0.0000
     22 H3         -3.8867   -4.3528    3.2653 H         1 <0>         0.0000
     23 H4         -0.3994   -3.2569    1.0000 H         1 <0>         0.0000
     24 H5         -0.6228   -4.2120   -5.3591 H         1 <0>         0.0000
     25 H6         -2.2361   -4.1457   -4.6554 H         1 <0>         0.0000
     26 H7         -1.2468   -6.3449   -4.2287 H         1 <0>         0.0000
     27 H8          0.1916   -5.6214   -3.5225 H         1 <0>         0.0000
     28 H9          0.3223   -2.9484   -3.4880 H         1 <0>         0.0000
     29 H10        -1.0399   -2.0717   -4.1692 H         1 <0>         0.0000
     30 H11        -2.6643   -5.5126   -2.4293 H         1 <0>         0.0000
     31 H12        -1.3007   -6.4071   -1.7533 H         1 <0>         0.0000
     32 H13        -2.5357   -2.8381   -2.3866 H         1 <0>         0.0000
     33 H14         0.9595    0.0948   -1.6296 H         1 <0>         0.0000
     34 H15        -0.4630    0.9237   -0.9594 H         1 <0>         0.0000
     35 H16         0.0733    1.2789   -2.6157 H         1 <0>         0.0000
     36 H17        -2.8905   -0.8077   -3.0699 H         1 <0>         0.0000
     37 H18        -2.1405    0.7599   -3.4440 H         1 <0>         0.0000
     38 H19        -2.6769    0.4047   -1.7877 H         1 <0>         0.0000
     39 H20         0.0958   -2.2056    4.1971 H         1 <0>         0.0000
     40 H21        -0.2680   -1.8082    2.4889 H         1 <0>         0.0000
     41 H22         0.4744   -3.3752    2.9057 H         1 <0>         0.0000
     42 H23        -0.0100   -1.8794   -1.0502 H         1 <0>         0.0000
     43 H24        -1.7008   -1.4541   -0.6963 H         1 <0>         0.0000
     44 H25         0.3880   -5.1627   -0.7262 H         1 <0>         0.0000
@<TRIPOS>BOND
     1    1    2 ar
     2    1    3 ar
     3    2    5 ar
     4    3    6 ar
     5    4    5 ar
     6    4    6 ar
     7    5   12 1
     8    6   19 1
     9    7    8 1
    10    7    9 1
    11    8   10 1
    12    9   11 1
    13   10   12 1
    14   11   12 1
    15   11   16 1
    16   12   18 1
    17   13   17 1
    18   14   17 1
    19   15   19 1
    20   16   17 1
    21    1   20 1
    22    2   21 1
    23    3   22 1
    24    4   23 1
    25    7   24 1
    26    7   25 1
    27    8   26 1
    28    8   27 1
    29    9   28 1
    30    9   29 1
    31   10   30 1
    32   10   31 1
    33   11   32 1
    34   13   33 1
    35   13   34 1
    36   13   35 1
    37   14   36 1
    38   14   37 1
    39   14   38 1
    40   15   39 1
    41   15   40 1
    42   15   41 1
    43   16   42 1
    44   16   43 1
    45   18   44 1
@<TRIPOS>MOLECULE
*****
   44    45     0     0     0
SMALL
NO_CHARGES

@<TRIPOS>ATOM
      1 C1         -1.1974   -3.7755    2.3475 C.ar      1 <0>         0.0000
      2 C2         -0.6321   -3.9222    1.0808 C.ar      1 <0>         0.0000
      3 C3         -2.5799   -3.8666    2.5092 C.ar      1 <0>         0.0000
      4 C4         -2.8318   -4.2508    0.1373 C.ar      1 <0>         0.0000
      5 C5         -1.4493   -4.1598   -0.0243 C.ar      1 <0>         0.0000
      6 C6         -3.3971   -4.1042    1.4040 C.ar      1 <0>         0.0000
      7 C7         -1.1066   -4.8275   -4.3467 C.3       1 <0>         0.0000
      8 C8         -0.6266   -5.9231   -3.4040 C.3       1 <0>         0.0000
      9 C9         -0.7535   -3.4398   -3.8221 C.3       1 <0>         0.0000
     10 C10        -1.1724   -5.7179   -1.9909 C.3       1 <0>         0.0000
     11 C11        -1.2980   -3.2024   -2.3989 C.3       1 <0>         0.0000
     12 C12        -0.8278   -4.3205   -1.4168 C.3       1 <0>         0.0000
     13 C13        -0.7010    0.4581   -2.7566 C.3       1 <0>         0.0000
     14 C14        -2.8572   -0.5900   -2.6000 C.3       1 <0>         0.0000
     15 C15        -5.5221   -4.4381    0.3899 C.3       1 <0>         0.0000
     16 C16        -0.8852   -1.7950   -1.9428 C.3       1 <0>         0.0000
     17 N1         -1.4194   -0.8301   -2.8395 N.3       1 <0>         0.0000
     18 O1          0.6048   -4.2376   -1.3407 O.3       1 <0>         0.0000
     19 O2         -4.7461   -4.1937    1.5619 O.3       1 <0>         0.0000
     20 H1         -0.5610   -3.5910    3.2079 H         1 <0>         0.0000
     21 H2          0.4460   -3.8492    0.9647 H         1 <0>         0.0000
     22 H3         -3.0140   -3.7515    3.4984 H         1 <0>         0.0000
     23 H4         -3.4715   -4.4358   -0.7226 H         1 <0>         0.0000
     24 H5         -0.6589   -4.9720   -5.3365 H         1 <0>         0.0000
     25 H6         -2.1933   -4.9047   -4.4745 H         1 <0>         0.0000
     26 H7         -0.9524   -6.8991   -3.7819 H         1 <0>         0.0000
     27 H8          0.4693   -5.9437   -3.3856 H         1 <0>         0.0000
     28 H9          0.3356   -3.3095   -3.8405 H         1 <0>         0.0000
     29 H10        -1.1678   -2.6874   -4.5046 H         1 <0>         0.0000
     30 H11        -2.2613   -5.8612   -2.0071 H         1 <0>         0.0000
     31 H12        -0.7552   -6.5016   -1.3451 H         1 <0>         0.0000
     32 H13        -2.3965   -3.2243   -2.4540 H         1 <0>         0.0000
     33 H14         0.3671    0.3044   -2.9310 H         1 <0>         0.0000
     34 H15        -0.8355    0.9029   -1.7669 H         1 <0>         0.0000
     35 H16        -1.0839    1.1535   -3.5083 H         1 <0>         0.0000
     36 H17        -3.4098   -1.5315   -2.6567 H         1 <0>         0.0000
     37 H18        -3.2558    0.0978   -3.3507 H         1 <0>         0.0000
     38 H19        -3.0075   -0.1528   -1.6092 H         1 <0>         0.0000
     39 H20        -6.5808   -4.4865    0.6564 H         1 <0>         0.0000
     40 H21        -5.2070   -5.3796   -0.0671 H         1 <0>         0.0000
     41 H22        -5.3640   -3.6209   -0.3179 H         1 <0>         0.0000
     42 H23         0.1928   -1.7392   -1.9479 H         1 <0>         0.0000
     43 H24        -1.2767   -1.6262   -0.9515 H         1 <0>         0.0000
     44 H25         0.8941   -4.9561   -0.7563 H         1 <0>         0.0000
@<TRIPOS>BOND
     1    1    2 ar
     2    1    3 ar
     3    2    5 ar
     4    3    6 ar
     5    4    5 ar
     6    4    6 ar
     7    5   12 1
     8    6   19 1
     9    7    8 1
    10    7    9 1
    11    8   10 1
    12    9   11 1
    13   10   12 1
    14   11   12 1
    15   11   16 1
    16   12   18 1
    17   13   17 1
    18   14   17 1
    19   15   19 1
    20   16   17 1
    21    1   20 1
    22    2   21 1
    23    3   22 1
    24    4   23 1
    25    7   24 1
    26    7   25 1
    27    8   26 1
    28    8   27 1
    29    9   28 1
    30    9   29 1
    31   10   30 1
    32   10   31 1
    33   11   32 1
    34   13   33 1
    35   13   34 1
    36   13   35 1
    37   14   36 1
    38   14   37 1
    39   14   38 1
    40   15   39 1
    41   15   40 1
    42   15   41 1
    43   16   42 1
    44   16   43 1
    45   18   44 1
@<TRIPOS>MOLECULE
*****
   44    45     0     0     0
SMALL
NO_CHARGES

@<TRIPOS>ATOM
      1 C1         -1.1189   -3.7985    2.2679 C.ar      1 <0>         0.0000
      2 C2         -0.5803   -3.9439    0.9895 C.ar      1 <0>         0.0000
      3 C3         -2.4996   -3.8660    2.4549 C.ar      1 <0>         0.0000
      4 C4         -2.8030   -4.2243    0.0849 C.ar      1 <0>         0.0000
      5 C5         -1.4223   -4.1568   -0.1020 C.ar      1 <0>         0.0000
      6 C6         -3.3416   -4.0789    1.3634 C.ar      1 <0>         0.0000
      7 C7         -1.1731   -4.7916   -4.4358 C.3       1 <0>         0.0000
      8 C8         -0.6956   -5.9041   -3.5118 C.3       1 <0>         0.0000
      9 C9         -0.7850   -3.4152   -3.9059 C.3       1 <0>         0.0000
     10 C10        -1.2109   -5.7018   -2.0869 C.3       1 <0>         0.0000
     11 C11        -1.2982   -3.1809   -2.4707 C.3       1 <0>         0.0000
     12 C12        -0.8301   -4.3161   -1.5074 C.3       1 <0>         0.0000
     13 C13        -0.6413    0.4713   -2.8079 C.3       1 <0>         0.0000
     14 C14        -2.8130   -0.5391   -2.6195 C.3       1 <0>         0.0000
     15 C15        -5.1717   -3.9891    2.8794 C.3       1 <0>         0.0000
     16 C16        -0.8513   -1.7853   -2.0103 C.3       1 <0>         0.0000
     17 N1         -1.3846   -0.8029   -2.8883 N.3       1 <0>         0.0000
     18 O1          0.6049   -4.2598   -1.4577 O.3       1 <0>         0.0000
     19 O2         -4.6889   -4.1454    1.5460 O.3       1 <0>         0.0000
     20 H1         -0.4633   -3.6333    3.1176 H         1 <0>         0.0000
     21 H2          0.4966   -3.8894    0.8536 H         1 <0>         0.0000
     22 H3         -2.9129   -3.7520    3.4531 H         1 <0>         0.0000
     23 H4         -3.4619   -4.3898   -0.7642 H         1 <0>         0.0000
     24 H5         -0.7467   -4.9352   -5.4351 H         1 <0>         0.0000
     25 H6         -2.2633   -4.8479   -4.5436 H         1 <0>         0.0000
     26 H7         -1.0461   -6.8706   -3.8919 H         1 <0>         0.0000
     27 H8          0.3999   -5.9446   -3.5144 H         1 <0>         0.0000
     28 H9          0.3058   -3.3045   -3.9438 H         1 <0>         0.0000
     29 H10        -1.1982   -2.6494   -4.5739 H         1 <0>         0.0000
     30 H11        -2.3023   -5.8253   -2.0838 H         1 <0>         0.0000
     31 H12        -0.7960   -6.4988   -1.4560 H         1 <0>         0.0000
     32 H13        -2.3977   -3.1824   -2.5052 H         1 <0>         0.0000
     33 H14         0.4203    0.2999   -3.0038 H         1 <0>         0.0000
     34 H15        -0.7492    0.9095   -1.8119 H         1 <0>         0.0000
     35 H16        -1.0255    1.1802   -3.5462 H         1 <0>         0.0000
     36 H17        -3.3837   -1.4698   -2.6739 H         1 <0>         0.0000
     37 H18        -3.2130    0.1626   -3.3566 H         1 <0>         0.0000
     38 H19        -2.9367   -0.1082   -1.6223 H         1 <0>         0.0000
     39 H20        -6.2619   -4.0632    2.8840 H         1 <0>         0.0000
     40 H21        -4.8604   -3.0166    3.2690 H         1 <0>         0.0000
     41 H22        -4.7523   -4.7810    3.5045 H         1 <0>         0.0000
     42 H23         0.2273   -1.7490   -2.0354 H         1 <0>         0.0000
     43 H24        -1.2210   -1.6184   -1.0103 H         1 <0>         0.0000
     44 H25         0.8920   -4.9887   -0.8851 H         1 <0>         0.0000
@<TRIPOS>BOND
     1    1    2 ar
     2    1    3 ar
     3    2    5 ar
     4    3    6 ar
     5    4    5 ar
     6    4    6 ar
     7    5   12 1
     8    6   19 1
     9    7    8 1
    10    7    9 1
    11    8   10 1
    12    9   11 1
    13   10   12 1
    14   11   12 1
    15   11   16 1
    16   12   18 1
    17   13   17 1
    18   14   17 1
    19   15   19 1
    20   16   17 1
    21    1   20 1
    22    2   21 1
    23    3   22 1
    24    4   23 1
    25    7   24 1
    26    7   25 1
    27    8   26 1
    28    8   27 1
    29    9   28 1
    30    9   29 1
    31   10   30 1
    32   10   31 1
    33   11   32 1
    34   13   33 1
    35   13   34 1
    36   13   35 1
    37   14   36 1
    38   14   37 1
    39   14   38 1
    40   15   39 1
    41   15   40 1
    42   15   41 1
    43   16   42 1
    44   16   43 1
    45   18   44 1
@<TRIPOS>MOLECULE
*****
   44    45     0     0     0
SMALL
NO_CHARGES

@<TRIPOS>ATOM
      1 C1         -1.0497   -3.0565    2.3080 C.ar      1 <0>         0.0000
      2 C2         -0.6328   -3.1975    0.9845 C.ar      1 <0>         0.0000
      3 C3         -2.2213   -3.6781    2.7403 C.ar      1 <0>         0.0000
      4 C4         -2.5592   -4.5814    0.5251 C.ar      1 <0>         0.0000
      5 C5         -1.3876   -3.9599    0.0930 C.ar      1 <0>         0.0000
      6 C6         -2.9761   -4.4405    1.8488 C.ar      1 <0>         0.0000
      7 C7         -1.5484   -4.5425   -4.2523 C.3       1 <0>         0.0000
      8 C8         -1.0166   -5.6782   -3.3881 C.3       1 <0>         0.0000
      9 C9         -1.0800   -3.1829   -3.7447 C.3       1 <0>         0.0000
     10 C10        -1.3953   -5.4829   -1.9201 C.3       1 <0>         0.0000
     11 C11        -1.4549   -2.9557   -2.2661 C.3       1 <0>         0.0000
     12 C12        -0.9294   -4.1144   -1.3622 C.3       1 <0>         0.0000
     13 C13        -0.2546    0.5391   -2.7449 C.3       1 <0>         0.0000
     14 C14        -2.5318   -0.1923   -2.9734 C.3       1 <0>         0.0000
     15 C15        -4.4862   -4.8622    3.6369 C.3       1 <0>         0.0000
     16 C16        -0.9338   -1.5773   -1.8328 C.3       1 <0>         0.0000
     17 N1         -1.1279   -0.6439   -2.8872 N.3       1 <0>         0.0000
     18 O1          0.5051   -4.0926   -1.4427 O.3       1 <0>         0.0000
     19 O2         -4.1190   -5.0475    2.2708 O.3       1 <0>         0.0000
     20 H1         -0.4618   -2.4634    3.0021 H         1 <0>         0.0000
     21 H2          0.2811   -2.7092    0.6568 H         1 <0>         0.0000
     22 H3         -2.5406   -3.5644    3.7724 H         1 <0>         0.0000
     23 H4         -3.1498   -5.1762   -0.1677 H         1 <0>         0.0000
     24 H5         -1.2182   -4.6828   -5.2878 H         1 <0>         0.0000
     25 H6         -2.6449   -4.5717   -4.2610 H         1 <0>         0.0000
     26 H7         -1.4239   -6.6310   -3.7455 H         1 <0>         0.0000
     27 H8          0.0728   -5.7445   -3.4909 H         1 <0>         0.0000
     28 H9          0.0052   -3.0974   -3.8805 H         1 <0>         0.0000
     29 H10        -1.5331   -2.3987   -4.3636 H         1 <0>         0.0000
     30 H11        -2.4847   -5.5807   -1.8189 H         1 <0>         0.0000
     31 H12        -0.9447   -6.2977   -1.3385 H         1 <0>         0.0000
     32 H13        -2.5527   -2.9309   -2.2004 H         1 <0>         0.0000
     33 H14         0.7913    0.2282   -2.6792 H         1 <0>         0.0000
     34 H15        -0.5145    1.0940   -1.8394 H         1 <0>         0.0000
     35 H16        -0.3715    1.2010   -3.6072 H         1 <0>         0.0000
     36 H17        -3.1974   -1.0529   -3.0793 H         1 <0>         0.0000
     37 H18        -2.6652    0.4643   -3.8374 H         1 <0>         0.0000
     38 H19        -2.8082    0.3573   -2.0695 H         1 <0>         0.0000
     39 H20        -5.4159   -5.3989    3.8412 H         1 <0>         0.0000
     40 H21        -4.6166   -3.7960    3.8387 H         1 <0>         0.0000
     41 H22        -3.6923   -5.2574    4.2751 H         1 <0>         0.0000
     42 H23         0.1197   -1.6662   -1.6145 H         1 <0>         0.0000
     43 H24        -1.4843   -1.2603   -0.9605 H         1 <0>         0.0000
     44 H25         0.8249   -4.8356   -0.9068 H         1 <0>         0.0000
@<TRIPOS>BOND
     1    1    2 ar
     2    1    3 ar
     3    2    5 ar
     4    3    6 ar
     5    4    5 ar
     6    4    6 ar
     7    5   12 1
     8    6   19 1
     9    7    8 1
    10    7    9 1
    11    8   10 1
    12    9   11 1
    13   10   12 1
    14   11   12 1
    15   11   16 1
    16   12   18 1
    17   13   17 1
    18   14   17 1
    19   15   19 1
    20   16   17 1
    21    1   20 1
    22    2   21 1
    23    3   22 1
    24    4   23 1
    25    7   24 1
    26    7   25 1
    27    8   26 1
    28    8   27 1
    29    9   28 1
    30    9   29 1
    31   10   30 1
    32   10   31 1
    33   11   32 1
    34   13   33 1
    35   13   34 1
    36   13   35 1
    37   14   36 1
    38   14   37 1
    39   14   38 1
    40   15   39 1
    41   15   40 1
    42   15   41 1
    43   16   42 1
    44   16   43 1
    45   18   44 1
@<TRIPOS>MOLECULE
*****
   44    45     0     0     0
SMALL
NO_CHARGES

@<TRIPOS>ATOM
      1 C1         -1.2662   -3.0897    2.3761 C.ar      1 <0>         0.0000
      2 C2         -0.7858   -3.2388    1.0751 C.ar      1 <0>         0.0000
      3 C3         -2.4503   -3.7200    2.7588 C.ar      1 <0>         0.0000
      4 C4         -2.6735   -4.6484    0.5396 C.ar      1 <0>         0.0000
      5 C5         -1.4894   -4.0181    0.1569 C.ar      1 <0>         0.0000
      6 C6         -3.1539   -4.4993    1.8406 C.ar      1 <0>         0.0000
      7 C7         -1.4384   -4.6444   -4.1850 C.3       1 <0>         0.0000
      8 C8         -0.9361   -5.7657   -3.2853 C.3       1 <0>         0.0000
      9 C9         -1.0090   -3.2748   -3.6697 C.3       1 <0>         0.0000
     10 C10        -1.3858   -5.5604   -1.8387 C.3       1 <0>         0.0000
     11 C11        -1.4558   -3.0376   -2.2129 C.3       1 <0>         0.0000
     12 C12        -0.9614   -4.1815   -1.2734 C.3       1 <0>         0.0000
     13 C13        -0.2714    0.4655   -2.6701 C.3       1 <0>         0.0000
     14 C14        -2.5273   -0.2932   -2.9982 C.3       1 <0>         0.0000
     15 C15        -4.9776   -5.8963    1.2255 C.3       1 <0>         0.0000
     16 C16        -0.9704   -1.6493   -1.7695 C.3       1 <0>         0.0000
     17 N1         -1.1243   -0.7284   -2.8413 N.3       1 <0>         0.0000
     18 O1          0.4751   -4.1446   -1.2864 O.3       1 <0>         0.0000
     19 O2         -4.3090   -5.1148    2.2143 O.3       1 <0>         0.0000
     20 H1         -0.7181   -2.4834    3.0911 H         1 <0>         0.0000
     21 H2          0.1374   -2.7436    0.7860 H         1 <0>         0.0000
     22 H3         -2.8192   -3.5999    3.7736 H         1 <0>         0.0000
     23 H4         -3.2243   -5.2563   -0.1743 H         1 <0>         0.0000
     24 H5         -1.0581   -4.7910   -5.2023 H         1 <0>         0.0000
     25 H6         -2.5329   -4.6858   -4.2452 H         1 <0>         0.0000
     26 H7         -1.3159   -6.7264   -3.6517 H         1 <0>         0.0000
     27 H8          0.1577   -5.8209   -3.3358 H         1 <0>         0.0000
     28 H9          0.0805   -3.1786   -3.7550 H         1 <0>         0.0000
     29 H10        -1.4406   -2.5017   -4.3173 H         1 <0>         0.0000
     30 H11        -2.4776   -5.6693   -1.7881 H         1 <0>         0.0000
     31 H12        -0.9545   -6.3646   -1.2283 H         1 <0>         0.0000
     32 H13        -2.5557   -3.0243   -2.1993 H         1 <0>         0.0000
     33 H14         0.7735    0.1670   -2.5519 H         1 <0>         0.0000
     34 H15        -0.5796    1.0262   -1.7835 H         1 <0>         0.0000
     35 H16        -0.3544    1.1178   -3.5436 H         1 <0>         0.0000
     36 H17        -3.1780   -1.1621   -3.1266 H         1 <0>         0.0000
     37 H18        -2.6267    0.3535   -3.8742 H         1 <0>         0.0000
     38 H19        -2.8519    0.2620   -2.1141 H         1 <0>         0.0000
     39 H20        -5.8836   -6.3310    1.6548 H         1 <0>         0.0000
     40 H21        -4.3116   -6.6885    0.8743 H         1 <0>         0.0000
     41 H22        -5.2480   -5.2516    0.3859 H         1 <0>         0.0000
     42 H23         0.0725   -1.7244   -1.5009 H         1 <0>         0.0000
     43 H24        -1.5648   -1.3300   -0.9274 H         1 <0>         0.0000
     44 H25         0.7770   -4.8788   -0.7285 H         1 <0>         0.0000
@<TRIPOS>BOND
     1    1    2 ar
     2    1    3 ar
     3    2    5 ar
     4    3    6 ar
     5    4    5 ar
     6    4    6 ar
     7    5   12 1
     8    6   19 1
     9    7    8 1
    10    7    9 1
    11    8   10 1
    12    9   11 1
    13   10   12 1
    14   11   12 1
    15   11   16 1
    16   12   18 1
    17   13   17 1
    18   14   17 1
    19   15   19 1
    20   16   17 1
    21    1   20 1
    22    2   21 1
    23    3   22 1
    24    4   23 1
    25    7   24 1
    26    7   25 1
    27    8   26 1
    28    8   27 1
    29    9   28 1
    30    9   29 1
    31   10   30 1
    32   10   31 1
    33   11   32 1
    34   13   33 1
    35   13   34 1
    36   13   35 1
    37   14   36 1
    38   14   37 1
    39   14   38 1
    40   15   39 1
    41   15   40 1
    42   15   41 1
    43   16   42 1
    44   16   43 1
    45   18   44 1
