
  Mrv1533004081509272D          

 12 13  0  0  0  0            999 V2000
   -6.4525    1.2822    0.0000 C   0  0  0  0  0  0  0  0  0  0  0  0
   -7.1670    0.8697    0.0000 C   0  0  0  0  0  0  0  0  0  0  0  0
   -7.8815    1.2822    0.0000 C   0  0  0  0  0  0  0  0  0  0  0  0
   -7.8815    2.1072    0.0000 C   0  0  0  0  0  0  0  0  0  0  0  0
   -7.1670    2.5197    0.0000 C   0  0  0  0  0  0  0  0  0  0  0  0
   -6.4525    2.1072    0.0000 C   0  0  0  0  0  0  0  0  0  0  0  0
   -5.7381    2.5197    0.0000 C   0  0  0  0  0  0  0  0  0  0  0  0
   -5.0236    2.1072    0.0000 C   0  0  0  0  0  0  0  0  0  0  0  0
   -5.0236    1.2822    0.0000 C   0  0  0  0  0  0  0  0  0  0  0  0
   -5.7381    0.8697    0.0000 C   0  0  0  0  0  0  0  0  0  0  0  0
   -5.7381    3.3447    0.0000 Cl  0  0  0  0  0  0  0  0  0  0  0  0
   -8.5959    0.8697    0.0000 C   0  0  0  0  0  0  0  0  0  0  0  0
  1  2  1  0  0  0  0
  1  6  2  0  0  0  0
  1 10  1  0  0  0  0
  2  3  2  0  0  0  0
  3  4  1  0  0  0  0
  4  5  2  0  0  0  0
  5  6  1  0  0  0  0
  6  7  1  0  0  0  0
  7  8  2  0  0  0  0
  8  9  1  0  0  0  0
  9 10  2  0  0  0  0
  7 11  1  0  0  0  0
  3 12  1  0  0  0  0
M  END
